1
                    3D
 Schrodinger Suite 2023-2.
 59 63  0  0  1  0            999 V2000
   -5.0261    1.4324    0.2838 F   0  0  0  0  0  0
   -4.4843    0.5364    1.1094 C   0  0  0  0  0  0
   -4.7261    0.9091    2.3654 F   0  0  0  0  0  0
   -5.0718   -0.6406    0.8904 F   0  0  0  0  0  0
   -2.9805    0.4435    0.8954 C   0  0  0  0  0  0
   -2.2992   -0.7723    1.1122 C   0  0  0  0  0  0
   -2.2454    1.5776    0.4941 C   0  0  0  0  0  0
   -0.9062   -0.8510    0.9207 C   0  0  0  0  0  0
   -0.8521    1.4946    0.3065 C   0  0  0  0  0  0
   -0.1610    0.2796    0.5158 C   0  0  0  0  0  0
    1.3001    0.1930    0.3226 C   0  0  0  0  0  0
    2.1524    1.2383    0.7416 C   0  0  0  0  0  0
    1.8847   -0.9390   -0.2850 C   0  0  0  0  0  0
    3.5501    1.1548    0.5712 C   0  0  0  0  0  0
    3.2777   -1.0307   -0.4622 C   0  0  0  0  0  0
    4.1320    0.0089   -0.0274 C   0  0  0  0  0  0
    4.3632    2.2211    1.0016 C   0  0  0  0  0  0
    5.5422   -0.0679   -0.1843 C   0  0  0  0  0  0
    5.7637    2.1649    0.8405 C   0  0  0  0  0  0
    6.2189   -1.2368   -0.7759 C   0  0  0  0  0  0
    6.3353    1.0178    0.2468 C   0  0  0  0  0  0
    6.6335    3.3065    1.2938 C   0  0  0  0  0  0
    6.1956   -2.4906   -0.1313 C   0  0  0  0  0  0
    6.9102   -1.1235   -1.9992 C   0  0  0  0  0  0
    7.8718    3.2234    1.1339 O   0  0  0  0  0  0
    6.0939    4.3069    1.8173 O   0  5  0  0  0  0
    6.8300   -3.6077   -0.7058 C   0  0  0  0  0  0
    7.5479   -2.2386   -2.5763 C   0  0  0  0  0  0
    7.5223   -3.4998   -1.9335 C   0  0  0  0  0  0
    8.1668   -4.7603   -2.5405 C   0  0  0  0  0  0
    9.1677   -4.5137   -3.6951 C   0  0  0  0  0  0
    9.1681   -5.4314   -1.5741 C   0  0  0  0  0  0
    9.5605   -5.8453   -4.3903 C   0  0  0  0  0  0
    9.5748   -6.8461   -2.0682 C   0  0  0  0  0  0
   10.1128   -6.8814   -3.4645 N   0  3  0  0  0  0
   -2.8412   -1.6516    1.4276 H   0  0  0  0  0  0
   -2.7464    2.5198    0.3282 H   0  0  0  0  0  0
   -0.4079   -1.7928    1.0982 H   0  0  0  0  0  0
   -0.3136    2.3772   -0.0068 H   0  0  0  0  0  0
    1.7301    2.1154    1.2106 H   0  0  0  0  0  0
    1.2616   -1.7515   -0.6286 H   0  0  0  0  0  0
    3.6723   -1.9145   -0.9396 H   0  0  0  0  0  0
    3.9025    3.0870    1.4554 H   0  0  0  0  0  0
    7.4069    0.9552    0.1219 H   0  0  0  0  0  0
    5.6731   -2.6011    0.8079 H   0  0  0  0  0  0
    6.9446   -0.1711   -2.5083 H   0  0  0  0  0  0
    6.7657   -4.5573   -0.1962 H   0  0  0  0  0  0
    8.0539   -2.0961   -3.5177 H   0  0  0  0  0  0
    7.3708   -5.4448   -2.8377 H   0  0  0  0  0  0
    8.6889   -3.9122   -4.4670 H   0  0  0  0  0  0
   10.0482   -3.9467   -3.3869 H   0  0  0  0  0  0
   10.0466   -4.8124   -1.3821 H   0  0  0  0  0  0
    8.7078   -5.5692   -0.5965 H   0  0  0  0  0  0
    8.6722   -6.2701   -4.8592 H   0  0  0  0  0  0
   10.2765   -5.6659   -5.1926 H   0  0  0  0  0  0
   10.3031   -7.2966   -1.3936 H   0  0  0  0  0  0
    8.6942   -7.4891   -2.0447 H   0  0  0  0  0  0
    9.9943   -7.8028   -3.8610 H   0  0  0  0  0  0
   11.1026   -6.6943   -3.3901 H   0  0  0  0  0  0
  1  2  1  0  0  0
  2  3  1  0  0  0
  2  4  1  0  0  0
  2  5  1  0  0  0
  5  6  2  0  0  0
  5  7  1  0  0  0
  6  8  1  0  0  0
  6 36  1  0  0  0
  7  9  2  0  0  0
  7 37  1  0  0  0
  8 10  2  0  0  0
  8 38  1  0  0  0
  9 10  1  0  0  0
  9 39  1  0  0  0
 10 11  1  0  0  0
 11 12  2  0  0  0
 11 13  1  0  0  0
 12 14  1  0  0  0
 12 40  1  0  0  0
 13 15  2  0  0  0
 13 41  1  0  0  0
 14 16  1  0  0  0
 14 17  2  0  0  0
 15 16  1  0  0  0
 15 42  1  0  0  0
 16 18  2  0  0  0
 17 19  1  0  0  0
 17 43  1  0  0  0
 18 20  1  0  0  0
 18 21  1  0  0  0
 19 22  1  0  0  0
 19 21  2  0  0  0
 20 23  2  0  0  0
 20 24  1  0  0  0
 21 44  1  0  0  0
 22 25  2  0  0  0
 22 26  1  0  0  0
 23 27  1  0  0  0
 23 45  1  0  0  0
 24 28  2  0  0  0
 24 46  1  0  0  0
 27 29  2  0  0  0
 27 47  1  0  0  0
 28 29  1  0  0  0
 28 48  1  0  0  0
 29 30  1  0  0  0
 30 31  1  0  0  0
 30 32  1  0  0  0
 30 49  1  0  0  0
 31 33  1  0  0  0
 31 50  1  0  0  0
 31 51  1  0  0  0
 32 34  1  0  0  0
 32 52  1  0  0  0
 32 53  1  0  0  0
 33 35  1  0  0  0
 33 54  1  0  0  0
 33 55  1  0  0  0
 34 35  1  0  0  0
 34 56  1  0  0  0
 34 57  1  0  0  0
 35 58  1  0  0  0
 35 59  1  0  0  0
M  CHG  2  26  -1  35   1
M  END
> <i_epik_Tot_Q>
0

> <i_epik_Tot_abs_Q>
2

> <i_lp_mmshare_version>
62121

> <i_m_Source_File_Index>
1

> <i_phase_Input_Structure_Number>
1

> <i_phase_Reference_Structure>
116

> <i_phase_Structure_Number>
1

> <Molecule Name>
1

> <Rotatable Bonds>
5

> <i_f3d_flags>
0

> <b_lp_Chiralities_Consistent>
1

> <r_canvas_IC50_human_P2Y14R,_nM>
6

> <r_canvas_pIC50>
8.22184874961636

> <r_epik_Charging_Adjusted_Penalty>
0.0012733390979885

> <r_epik_Ionization_Penalty>
  0.0013

> <r_epik_Ionization_Penalty_Charging>
  0.0013

> <r_epik_Ionization_Penalty_Neutral>
  0.0000

> <r_epik_State_Penalty>
  0.0000

> <r_lp_Energy>
66.283396

> <r_lp_tautomer_probability>
1

> <r_phase_Similarity_to_Reference>
0.7743007553315

> <s_canvas_CHEMBLID>
Â CHEMBL5085823

> <s_canvas_Compound>
3

> <s_canvas_Paper>
Junker2016

> <s_epik_cmdline>
J2VwaWtfcHl0aG9uJywgJy1waCcsICc3LjAnLCAnLXRuJywgJzgnLCAnLW1hJywgJzUwMCcsICctaW1hZScsICc8aW5maWxlLm1hZT4nLCAnLW9tYWUnLCAnPG91dGZpbGUubWFlPic=

> <s_epik_input>
RkMoRikoRiljMVtjSF1bY0hdYyhbY0hdW2NIXTEpLWMoW2NIXTIpW2NIXVtjSF1jKGMyMyljKFtjSF1jKFtjSF0zKUMoPU8pW09IXSktYzRbY0hdW2NIXWMoW2NIXVtjSF00KVtDSF01W0NIMl1bQ0gyXVtOSF1bQ0gyXVtDSDJdNQ==

> <s_lp_Force_Field>
S-OPLS

> <s_lp_Variant>
1-1

> <s_m_Source_File>
database-aligned.sdf

> <s_m_Source_Path>
/data/matteo/P2Y14-antagonists-piperidineDerivatives-Wen2023/14052024-optimized-alignment

> <s_m_entry_id>
1

> <s_m_entry_name>
database-aligned.1

> <s_m_job_name>
align_ligands_1

> <s_phase_Alignment_Method>
snapped core

> <s_phase_Alignment_Reason>


> <s_phase_Core_SMARTS>
a1aaaaa1-a(a2)aaa(a23)a(aaa3)-a4aaa(aa4)A5AA[A]AA5

$$$$
3
                    3D
 Schrodinger Suite 2023-2.
 55 58  0  0  1  0            999 V2000
   -5.4115    0.0859    1.0026 F   0  0  0  0  0  0
   -4.9033    1.2566    0.6162 C   0  0  0  0  0  0
   -5.3762    1.5346   -0.5993 F   0  0  0  0  0  0
   -5.3116    2.2017    1.4618 F   0  0  0  0  0  0
   -3.3822    1.2140    0.6111 C   0  0  0  0  0  0
   -2.6486    2.0186   -0.2881 C   0  0  0  0  0  0
   -2.6882    0.3839    1.5186 C   0  0  0  0  0  0
   -1.2404    1.9843   -0.2894 C   0  0  0  0  0  0
   -1.2799    0.3484    1.5185 C   0  0  0  0  0  0
   -0.5530    1.1476    0.6129 C   0  0  0  0  0  0
    0.8997    1.1118    0.6113 C   0  0  0  0  0  0
    2.1203    1.0742    0.6133 C   0  0  0  0  0  0
    3.5729    1.0430    0.6162 C   0  0  0  0  0  0
    4.2688   -0.0378   -0.0014 C   0  0  0  0  0  0
    4.3095    2.0826    1.2307 C   0  0  0  0  0  0
    5.6959   -0.0428    0.0147 C   0  0  0  0  0  0
    5.7140    2.0823    1.2549 C   0  0  0  0  0  0
    6.4845   -1.1328   -0.6109 C   0  0  0  0  0  0
    6.3738    1.0063    0.6388 C   0  0  0  0  0  0
    6.4824    3.1926    1.9177 C   0  0  0  0  0  0
    6.8196   -1.0713   -1.9653 C   0  0  0  0  0  0
    6.8885   -2.2318    0.1496 C   0  0  0  0  0  0
    7.7329    3.1460    1.9172 O   0  0  0  0  0  0
    5.8483    4.1301    2.4513 O   0  5  0  0  0  0
    7.5469   -2.1010   -2.5562 C   0  0  0  0  0  0
    7.6134   -3.2639   -0.4389 C   0  0  0  0  0  0
    7.9469   -3.2050   -1.7964 C   0  0  0  0  0  0
    8.7323   -4.3448   -2.4511 C   0  0  0  0  0  0
   10.1198   -4.5548   -1.7988 C   0  0  0  0  0  0
    7.9157   -5.6578   -2.4890 C   0  0  0  0  0  0
   10.9018   -5.7110   -2.4500 C   0  0  0  0  0  0
    8.6977   -6.8138   -3.1399 C   0  0  0  0  0  0
   10.0472   -6.9906   -2.4217 N   0  3  0  0  0  0
   -3.1627    2.6674   -0.9817 H   0  0  0  0  0  0
   -3.2330   -0.2298    2.2206 H   0  0  0  0  0  0
   -0.6930    2.6040   -0.9851 H   0  0  0  0  0  0
   -0.7634   -0.2938    2.2174 H   0  0  0  0  0  0
    3.7280   -0.8428   -0.4780 H   0  0  0  0  0  0
    3.7688    2.8956    1.6946 H   0  0  0  0  0  0
    7.4542    0.9796    0.6400 H   0  0  0  0  0  0
    6.5110   -0.2238   -2.5601 H   0  0  0  0  0  0
    6.6329   -2.2866    1.1979 H   0  0  0  0  0  0
    7.7941   -2.0394   -3.6059 H   0  0  0  0  0  0
    7.9103   -4.1102    0.1626 H   0  0  0  0  0  0
    8.9141   -4.0565   -3.4878 H   0  0  0  0  0  0
   10.7037   -3.6359   -1.8647 H   0  0  0  0  0  0
   10.0037   -4.7677   -0.7356 H   0  0  0  0  0  0
    7.6362   -5.9486   -1.4756 H   0  0  0  0  0  0
    6.9821   -5.4988   -3.0301 H   0  0  0  0  0  0
   11.1527   -5.4691   -3.4835 H   0  0  0  0  0  0
   11.8385   -5.8879   -1.9210 H   0  0  0  0  0  0
    8.1305   -7.7430   -3.0813 H   0  0  0  0  0  0
    8.8767   -6.6080   -4.1959 H   0  0  0  0  0  0
   10.5605   -7.7390   -2.8655 H   0  0  0  0  0  0
    9.8714   -7.2414   -1.4591 H   0  0  0  0  0  0
  1  2  1  0  0  0
  2  3  1  0  0  0
  2  4  1  0  0  0
  2  5  1  0  0  0
  5  6  2  0  0  0
  5  7  1  0  0  0
  6  8  1  0  0  0
  6 34  1  0  0  0
  7  9  2  0  0  0
  7 35  1  0  0  0
  8 10  2  0  0  0
  8 36  1  0  0  0
  9 10  1  0  0  0
  9 37  1  0  0  0
 10 11  1  0  0  0
 11 12  3  0  0  0
 12 13  1  0  0  0
 13 14  2  0  0  0
 13 15  1  0  0  0
 14 16  1  0  0  0
 14 38  1  0  0  0
 15 17  2  0  0  0
 15 39  1  0  0  0
 16 18  1  0  0  0
 16 19  2  0  0  0
 17 20  1  0  0  0
 17 19  1  0  0  0
 18 21  2  0  0  0
 18 22  1  0  0  0
 19 40  1  0  0  0
 20 23  2  0  0  0
 20 24  1  0  0  0
 21 25  1  0  0  0
 21 41  1  0  0  0
 22 26  2  0  0  0
 22 42  1  0  0  0
 25 27  2  0  0  0
 25 43  1  0  0  0
 26 27  1  0  0  0
 26 44  1  0  0  0
 27 28  1  0  0  0
 28 29  1  0  0  0
 28 30  1  0  0  0
 28 45  1  0  0  0
 29 31  1  0  0  0
 29 46  1  0  0  0
 29 47  1  0  0  0
 30 32  1  0  0  0
 30 48  1  0  0  0
 30 49  1  0  0  0
 31 33  1  0  0  0
 31 50  1  0  0  0
 31 51  1  0  0  0
 32 33  1  0  0  0
 32 52  1  0  0  0
 32 53  1  0  0  0
 33 54  1  0  0  0
 33 55  1  0  0  0
M  CHG  2  24  -1  33   1
M  END
> <i_epik_Tot_Q>
0

> <i_epik_Tot_abs_Q>
2

> <i_lp_mmshare_version>
62121

> <i_m_Source_File_Index>
2

> <i_phase_Input_Structure_Number>
2

> <i_phase_Reference_Structure>
41

> <i_phase_Structure_Number>
2

> <Molecule Name>
3

> <Rotatable Bonds>
5

> <i_f3d_flags>
0

> <b_lp_Chiralities_Consistent>
1

> <r_canvas_IC50_human_P2Y14R,_nM>
5690

> <r_canvas_pIC50>
5.24488773360493

> <r_epik_Charging_Adjusted_Penalty>
0.00114045743867277

> <r_epik_Ionization_Penalty>
  0.0011

> <r_epik_Ionization_Penalty_Charging>
  0.0011

> <r_epik_Ionization_Penalty_Neutral>
  0.0000

> <r_epik_State_Penalty>
  0.0000

> <r_lp_Energy>
50.771191

> <r_lp_tautomer_probability>
1

> <r_phase_Similarity_to_Reference>
0.730881036283144

> <s_canvas_CHEMBLID>
CID 164585612

> <s_canvas_Compound>
11

> <s_canvas_Paper>
Junker2016

> <s_epik_cmdline>
J2VwaWtfcHl0aG9uJywgJy1waCcsICc3LjAnLCAnLXRuJywgJzgnLCAnLW1hJywgJzUwMCcsICctaW1hZScsICc8aW5maWxlLm1hZT4nLCAnLW9tYWUnLCAnPG91dGZpbGUubWFlPic=

> <s_epik_input>
RkMoRikoRiljMVtjSF1bY0hdYyhbY0hdW2NIXTEpQyNDYzJbY0hdYyhbY0hdYyhbY0hdMilDKD1PKVtPSF0pLWMzW2NIXVtjSF1jKFtjSF1bY0hdMylbQ0hdNFtDSDJdW0NIMl1bTkhdW0NIMl1bQ0gyXTQ=

> <s_lp_Force_Field>
S-OPLS

> <s_lp_Variant>
3-1

> <s_m_Source_File>
database-aligned.sdf

> <s_m_Source_Path>
/data/matteo/P2Y14-antagonists-piperidineDerivatives-Wen2023/14052024-optimized-alignment

> <s_m_entry_id>
2

> <s_m_entry_name>
database-aligned.2

> <s_m_job_name>
align_ligands_1

> <s_phase_Alignment_Method>
snapped core

> <s_phase_Alignment_Reason>


> <s_phase_Core_SMARTS>
a1aaaaa1-a2aaa(aa2)A3AA[A]AA3

$$$$
4
                    3D
 Schrodinger Suite 2023-2.
 59 63  0  0  1  0            999 V2000
   -4.8466   -3.4241    1.6134 F   0  0  0  0  0  0
   -5.0120   -2.1173    1.8111 C   0  0  0  0  0  0
   -5.9312   -1.6407    0.9732 F   0  0  0  0  0  0
   -5.3787   -1.8881    3.0709 F   0  0  0  0  0  0
   -3.7102   -1.4192    1.5505 C   0  0  0  0  0  0
   -3.7049   -0.1126    1.0769 C   0  0  0  0  0  0
   -2.5092   -2.0790    1.7828 C   0  0  0  0  0  0
   -2.4987    0.5343    0.8355 C   0  0  0  0  0  0
   -1.3030   -1.4321    1.5414 C   0  0  0  0  0  0
   -1.2977   -0.1255    1.0677 C   0  0  0  0  0  0
    0.0041    0.5726    0.8072 C   0  0  0  0  0  0
    0.0745    1.8131    0.3572 N   0  0  0  0  0  0
    1.2788    0.0570    0.9868 C   0  0  0  0  0  0
    1.4087    2.1505    0.2272 N   0  0  0  0  0  0
    2.1133    1.0787    0.6116 N   0  0  0  0  0  0
    3.5729    1.0430    0.6162 C   0  0  0  0  0  0
    4.2688   -0.0378   -0.0014 C   0  0  0  0  0  0
    4.3095    2.0826    1.2307 C   0  0  0  0  0  0
    5.6959   -0.0428    0.0147 C   0  0  0  0  0  0
    5.7140    2.0823    1.2549 C   0  0  0  0  0  0
    6.4845   -1.1328   -0.6109 C   0  0  0  0  0  0
    6.3738    1.0063    0.6388 C   0  0  0  0  0  0
    6.4824    3.1926    1.9177 C   0  0  0  0  0  0
    6.8885   -2.2318    0.1496 C   0  0  0  0  0  0
    6.8196   -1.0713   -1.9653 C   0  0  0  0  0  0
    7.7329    3.1460    1.9172 O   0  0  0  0  0  0
    5.8483    4.1301    2.4513 O   0  5  0  0  0  0
    7.6134   -3.2639   -0.4389 C   0  0  0  0  0  0
    7.5469   -2.1010   -2.5562 C   0  0  0  0  0  0
    7.9469   -3.2050   -1.7964 C   0  0  0  0  0  0
    8.7323   -4.3448   -2.4511 C   0  0  0  0  0  0
   10.1198   -4.5548   -1.7988 C   0  0  0  0  0  0
    7.9157   -5.6578   -2.4890 C   0  0  0  0  0  0
   10.9018   -5.7110   -2.4500 C   0  0  0  0  0  0
    8.6977   -6.8138   -3.1399 C   0  0  0  0  0  0
   10.0472   -6.9906   -2.4217 N   0  3  0  0  0  0
   -4.6329    0.4101    0.8975 H   0  0  0  0  0  0
   -2.5031   -3.0929    2.1549 H   0  0  0  0  0  0
   -2.5154    1.5501    0.4687 H   0  0  0  0  0  0
   -0.3800   -1.9599    1.7285 H   0  0  0  0  0  0
    1.6399   -0.9000    1.3331 H   0  0  0  0  0  0
    3.7253   -0.8401   -0.4786 H   0  0  0  0  0  0
    3.7662    2.8933    1.6945 H   0  0  0  0  0  0
    7.4543    0.9795    0.6399 H   0  0  0  0  0  0
    6.6330   -2.2865    1.1979 H   0  0  0  0  0  0
    6.5111   -0.2237   -2.5600 H   0  0  0  0  0  0
    7.9104   -4.1101    0.1627 H   0  0  0  0  0  0
    7.7942   -2.0393   -3.6058 H   0  0  0  0  0  0
    8.9139   -4.0562   -3.4877 H   0  0  0  0  0  0
   10.7035   -3.6359   -1.8639 H   0  0  0  0  0  0
   10.0029   -4.7686   -0.7359 H   0  0  0  0  0  0
    7.6375   -5.9485   -1.4752 H   0  0  0  0  0  0
    6.9818   -5.4989   -3.0293 H   0  0  0  0  0  0
   11.1522   -5.4689   -3.4834 H   0  0  0  0  0  0
   11.8385   -5.8878   -1.9212 H   0  0  0  0  0  0
    8.1305   -7.7429   -3.0815 H   0  0  0  0  0  0
    8.8768   -6.6076   -4.1957 H   0  0  0  0  0  0
   10.5604   -7.7387   -2.8656 H   0  0  0  0  0  0
    9.8709   -7.2405   -1.4591 H   0  0  0  0  0  0
  1  2  1  0  0  0
  2  3  1  0  0  0
  2  4  1  0  0  0
  2  5  1  0  0  0
  5  6  2  0  0  0
  5  7  1  0  0  0
  6  8  1  0  0  0
  6 37  1  0  0  0
  7  9  2  0  0  0
  7 38  1  0  0  0
  8 10  2  0  0  0
  8 39  1  0  0  0
  9 10  1  0  0  0
  9 40  1  0  0  0
 10 11  1  0  0  0
 11 12  1  0  0  0
 11 13  2  0  0  0
 12 14  2  0  0  0
 13 15  1  0  0  0
 13 41  1  0  0  0
 14 15  1  0  0  0
 15 16  1  0  0  0
 16 17  2  0  0  0
 16 18  1  0  0  0
 17 19  1  0  0  0
 17 42  1  0  0  0
 18 20  2  0  0  0
 18 43  1  0  0  0
 19 21  1  0  0  0
 19 22  2  0  0  0
 20 23  1  0  0  0
 20 22  1  0  0  0
 21 24  2  0  0  0
 21 25  1  0  0  0
 22 44  1  0  0  0
 23 26  2  0  0  0
 23 27  1  0  0  0
 24 28  1  0  0  0
 24 45  1  0  0  0
 25 29  2  0  0  0
 25 46  1  0  0  0
 28 30  2  0  0  0
 28 47  1  0  0  0
 29 30  1  0  0  0
 29 48  1  0  0  0
 30 31  1  0  0  0
 31 32  1  0  0  0
 31 33  1  0  0  0
 31 49  1  0  0  0
 32 34  1  0  0  0
 32 50  1  0  0  0
 32 51  1  0  0  0
 33 35  1  0  0  0
 33 52  1  0  0  0
 33 53  1  0  0  0
 34 36  1  0  0  0
 34 54  1  0  0  0
 34 55  1  0  0  0
 35 36  1  0  0  0
 35 56  1  0  0  0
 35 57  1  0  0  0
 36 58  1  0  0  0
 36 59  1  0  0  0
M  CHG  2  27  -1  36   1
M  END
> <i_epik_Tot_Q>
0

> <i_epik_Tot_abs_Q>
2

> <i_lp_mmshare_version>
62121

> <i_m_Source_File_Index>
3

> <i_phase_Input_Structure_Number>
3

> <i_phase_Reference_Structure>
41

> <i_phase_Structure_Number>
3

> <Molecule Name>
4

> <Rotatable Bonds>
6

> <i_f3d_flags>
0

> <b_lp_Chiralities_Consistent>
1

> <r_canvas_IC50_human_P2Y14R,_nM>
31.7

> <r_canvas_pIC50>
7.49894073778225

> <r_epik_Charging_Adjusted_Penalty>
0.00131429387641412

> <r_epik_Ionization_Penalty>
  0.0008

> <r_epik_Ionization_Penalty_Charging>
  0.0008

> <r_epik_Ionization_Penalty_Neutral>
  0.0000

> <r_epik_State_Penalty>
  0.0006

> <r_lp_Energy>
57.011532

> <r_lp_tautomer_probability>
1

> <r_phase_Similarity_to_Reference>
0.935532045092196

> <s_canvas_CHEMBLID>
CID 164585562

> <s_canvas_Compound>
65

> <s_canvas_Paper>
Junker2016

> <s_epik_cmdline>
J2VwaWtfcHl0aG9uJywgJy1waCcsICc3LjAnLCAnLXRuJywgJzgnLCAnLW1hJywgJzUwMCcsICctaW1hZScsICc8aW5maWxlLm1hZT4nLCAnLW9tYWUnLCAnPG91dGZpbGUubWFlPic=

> <s_epik_input>
RkMoRikoRiljMVtjSF1bY0hdYyhbY0hdW2NIXTEpLWMybm5uKFtjSF0yKS1jM1tjSF1jKFtjSF1jKFtjSF0zKUMoPU8pW09IXSktYzRbY0hdW2NIXWMoW2NIXVtjSF00KVtDSF01W0NIMl1bQ0gyXVtOSF1bQ0gyXVtDSDJdNQ==

> <s_lp_Force_Field>
S-OPLS

> <s_lp_Variant>
4-1

> <s_m_Source_File>
database-aligned.sdf

> <s_m_Source_Path>
/data/matteo/P2Y14-antagonists-piperidineDerivatives-Wen2023/14052024-optimized-alignment

> <s_m_entry_id>
3

> <s_m_entry_name>
database-aligned.3

> <s_m_job_name>
align_ligands_1

> <s_phase_Alignment_Method>
snapped core

> <s_phase_Alignment_Reason>


> <s_phase_Core_SMARTS>
a1aaaaa1-a2aa(aa2)-a3aaaa(a3)-a4aaa(aa4)A5AA[A]AA5

$$$$
5
                    3D
 Schrodinger Suite 2023-2.
 56 60  0  0  1  0            999 V2000
   -5.2078   -2.2222    1.8501 Cl  0  0  0  0  0  0
   -3.7102   -1.4192    1.5505 C   0  0  0  0  0  0
   -3.7049   -0.1126    1.0769 C   0  0  0  0  0  0
   -2.5092   -2.0790    1.7828 C   0  0  0  0  0  0
   -2.4987    0.5343    0.8355 C   0  0  0  0  0  0
   -1.3030   -1.4321    1.5414 C   0  0  0  0  0  0
   -1.2977   -0.1255    1.0677 C   0  0  0  0  0  0
    0.0041    0.5726    0.8072 C   0  0  0  0  0  0
    0.0745    1.8131    0.3572 N   0  0  0  0  0  0
    1.2788    0.0570    0.9868 C   0  0  0  0  0  0
    1.4087    2.1505    0.2272 N   0  0  0  0  0  0
    2.1133    1.0787    0.6116 N   0  0  0  0  0  0
    3.5729    1.0430    0.6162 C   0  0  0  0  0  0
    4.2688   -0.0378   -0.0014 C   0  0  0  0  0  0
    4.3095    2.0826    1.2307 C   0  0  0  0  0  0
    5.6959   -0.0428    0.0147 C   0  0  0  0  0  0
    5.7140    2.0823    1.2549 C   0  0  0  0  0  0
    6.4845   -1.1328   -0.6109 C   0  0  0  0  0  0
    6.3738    1.0063    0.6388 C   0  0  0  0  0  0
    6.4824    3.1926    1.9177 C   0  0  0  0  0  0
    6.8196   -1.0713   -1.9653 C   0  0  0  0  0  0
    6.8885   -2.2318    0.1496 C   0  0  0  0  0  0
    7.7329    3.1460    1.9172 O   0  0  0  0  0  0
    5.8483    4.1301    2.4513 O   0  5  0  0  0  0
    7.5469   -2.1010   -2.5562 C   0  0  0  0  0  0
    7.6134   -3.2639   -0.4389 C   0  0  0  0  0  0
    7.9469   -3.2050   -1.7964 C   0  0  0  0  0  0
    8.7323   -4.3448   -2.4511 C   0  0  0  0  0  0
    7.9157   -5.6578   -2.4890 C   0  0  0  0  0  0
   10.1198   -4.5548   -1.7988 C   0  0  0  0  0  0
    8.6977   -6.8138   -3.1399 C   0  0  0  0  0  0
   10.9018   -5.7110   -2.4500 C   0  0  0  0  0  0
   10.0472   -6.9906   -2.4217 N   0  3  0  0  0  0
   -4.6370    0.4022    0.8957 H   0  0  0  0  0  0
   -2.5109   -3.0945    2.1509 H   0  0  0  0  0  0
   -2.5151    1.5498    0.4678 H   0  0  0  0  0  0
   -0.3800   -1.9602    1.7274 H   0  0  0  0  0  0
    1.6398   -0.9002    1.3322 H   0  0  0  0  0  0
    3.7254   -0.8405   -0.4780 H   0  0  0  0  0  0
    3.7664    2.8935    1.6947 H   0  0  0  0  0  0
    7.4543    0.9802    0.6404 H   0  0  0  0  0  0
    6.5111   -0.2238   -2.5602 H   0  0  0  0  0  0
    6.6331   -2.2868    1.1979 H   0  0  0  0  0  0
    7.7944   -2.0397   -3.6058 H   0  0  0  0  0  0
    7.9106   -4.1102    0.1624 H   0  0  0  0  0  0
    8.9142   -4.0569   -3.4879 H   0  0  0  0  0  0
    7.6359   -5.9490   -1.4758 H   0  0  0  0  0  0
    6.9820   -5.4993   -3.0301 H   0  0  0  0  0  0
   10.7041   -3.6361   -1.8646 H   0  0  0  0  0  0
   10.0042   -4.7676   -0.7355 H   0  0  0  0  0  0
    8.1313   -7.7436   -3.0820 H   0  0  0  0  0  0
    8.8777   -6.6081   -4.1958 H   0  0  0  0  0  0
   11.1522   -5.4699   -3.4838 H   0  0  0  0  0  0
   11.8389   -5.8887   -1.9218 H   0  0  0  0  0  0
    9.8717   -7.2421   -1.4592 H   0  0  0  0  0  0
   10.5605   -7.7393   -2.8651 H   0  0  0  0  0  0
  1  2  1  0  0  0
  2  3  2  0  0  0
  2  4  1  0  0  0
  3  5  1  0  0  0
  3 34  1  0  0  0
  4  6  2  0  0  0
  4 35  1  0  0  0
  5  7  2  0  0  0
  5 36  1  0  0  0
  6  7  1  0  0  0
  6 37  1  0  0  0
  7  8  1  0  0  0
  8  9  1  0  0  0
  8 10  2  0  0  0
  9 11  2  0  0  0
 10 12  1  0  0  0
 10 38  1  0  0  0
 11 12  1  0  0  0
 12 13  1  0  0  0
 13 14  2  0  0  0
 13 15  1  0  0  0
 14 16  1  0  0  0
 14 39  1  0  0  0
 15 17  2  0  0  0
 15 40  1  0  0  0
 16 18  1  0  0  0
 16 19  2  0  0  0
 17 20  1  0  0  0
 17 19  1  0  0  0
 18 21  2  0  0  0
 18 22  1  0  0  0
 19 41  1  0  0  0
 20 23  2  0  0  0
 20 24  1  0  0  0
 21 25  1  0  0  0
 21 42  1  0  0  0
 22 26  2  0  0  0
 22 43  1  0  0  0
 25 27  2  0  0  0
 25 44  1  0  0  0
 26 27  1  0  0  0
 26 45  1  0  0  0
 27 28  1  0  0  0
 28 29  1  0  0  0
 28 30  1  0  0  0
 28 46  1  0  0  0
 29 31  1  0  0  0
 29 47  1  0  0  0
 29 48  1  0  0  0
 30 32  1  0  0  0
 30 49  1  0  0  0
 30 50  1  0  0  0
 31 33  1  0  0  0
 31 51  1  0  0  0
 31 52  1  0  0  0
 32 33  1  0  0  0
 32 53  1  0  0  0
 32 54  1  0  0  0
 33 55  1  0  0  0
 33 56  1  0  0  0
M  CHG  2  24  -1  33   1
M  END
> <i_epik_Tot_Q>
0

> <i_epik_Tot_abs_Q>
2

> <i_lp_mmshare_version>
62121

> <i_m_Source_File_Index>
4

> <i_phase_Input_Structure_Number>
4

> <i_phase_Reference_Structure>
41

> <i_phase_Structure_Number>
4

> <Molecule Name>
5

> <Rotatable Bonds>
5

> <i_f3d_flags>
0

> <b_lp_Chiralities_Consistent>
1

> <r_canvas_IC50_human_P2Y14R,_nM>
290

> <r_canvas_pIC50>
6.53760200210104

> <r_epik_Charging_Adjusted_Penalty>
0.00131429387641412

> <r_epik_Ionization_Penalty>
  0.0008

> <r_epik_Ionization_Penalty_Charging>
  0.0008

> <r_epik_Ionization_Penalty_Neutral>
  0.0000

> <r_epik_State_Penalty>
  0.0006

> <r_lp_Energy>
55.227667

> <r_lp_tautomer_probability>
1

> <r_phase_Similarity_to_Reference>
0.886859281235939

> <s_canvas_CHEMBLID>
CID 164585478

> <s_canvas_Compound>
70

> <s_canvas_Paper>
Junker2016

> <s_epik_cmdline>
J2VwaWtfcHl0aG9uJywgJy1waCcsICc3LjAnLCAnLXRuJywgJzgnLCAnLW1hJywgJzUwMCcsICctaW1hZScsICc8aW5maWxlLm1hZT4nLCAnLW9tYWUnLCAnPG91dGZpbGUubWFlPic=

> <s_epik_input>
Q2xjMVtjSF1bY0hdYyhbY0hdW2NIXTEpLWMybm5uKFtjSF0yKS1jM1tjSF1jKFtjSF1jKFtjSF0zKUMoPU8pW09IXSktYzRbY0hdW2NIXWMoW2NIXVtjSF00KVtDSF01W0NIMl1bQ0gyXVtOSF1bQ0gyXVtDSDJdNQ==

> <s_lp_Force_Field>
S-OPLS

> <s_lp_Variant>
5-1

> <s_m_Source_File>
database-aligned.sdf

> <s_m_Source_Path>
/data/matteo/P2Y14-antagonists-piperidineDerivatives-Wen2023/14052024-optimized-alignment

> <s_m_entry_id>
4

> <s_m_entry_name>
database-aligned.4

> <s_m_job_name>
align_ligands_1

> <s_phase_Alignment_Method>
snapped core

> <s_phase_Alignment_Reason>


> <s_phase_Core_SMARTS>
a1aaaaa1-a2aa(aa2)-a3aaaa(a3)-a4aaa(aa4)A5AA[A]AA5

$$$$
6
                    3D
 Schrodinger Suite 2023-2.
 56 60  0  0  1  0            999 V2000
   -5.3619   -2.3048    1.8809 Br  0  0  0  0  0  0
   -3.7102   -1.4192    1.5505 C   0  0  0  0  0  0
   -3.7049   -0.1126    1.0769 C   0  0  0  0  0  0
   -2.5092   -2.0790    1.7828 C   0  0  0  0  0  0
   -2.4987    0.5343    0.8355 C   0  0  0  0  0  0
   -1.3030   -1.4321    1.5414 C   0  0  0  0  0  0
   -1.2977   -0.1255    1.0677 C   0  0  0  0  0  0
    0.0041    0.5726    0.8072 C   0  0  0  0  0  0
    0.0745    1.8131    0.3572 N   0  0  0  0  0  0
    1.2788    0.0570    0.9868 C   0  0  0  0  0  0
    1.4087    2.1505    0.2272 N   0  0  0  0  0  0
    2.1133    1.0787    0.6116 N   0  0  0  0  0  0
    3.5729    1.0430    0.6162 C   0  0  0  0  0  0
    4.2688   -0.0378   -0.0014 C   0  0  0  0  0  0
    4.3095    2.0826    1.2307 C   0  0  0  0  0  0
    5.6959   -0.0428    0.0147 C   0  0  0  0  0  0
    5.7140    2.0823    1.2549 C   0  0  0  0  0  0
    6.4845   -1.1328   -0.6109 C   0  0  0  0  0  0
    6.3738    1.0063    0.6388 C   0  0  0  0  0  0
    6.4824    3.1926    1.9177 C   0  0  0  0  0  0
    6.8196   -1.0713   -1.9653 C   0  0  0  0  0  0
    6.8885   -2.2318    0.1496 C   0  0  0  0  0  0
    7.7329    3.1460    1.9172 O   0  0  0  0  0  0
    5.8483    4.1301    2.4513 O   0  5  0  0  0  0
    7.5469   -2.1010   -2.5562 C   0  0  0  0  0  0
    7.6134   -3.2639   -0.4389 C   0  0  0  0  0  0
    7.9469   -3.2050   -1.7964 C   0  0  0  0  0  0
    8.7323   -4.3448   -2.4511 C   0  0  0  0  0  0
   10.1198   -4.5548   -1.7988 C   0  0  0  0  0  0
    7.9157   -5.6578   -2.4890 C   0  0  0  0  0  0
   10.9018   -5.7110   -2.4500 C   0  0  0  0  0  0
    8.6977   -6.8138   -3.1399 C   0  0  0  0  0  0
   10.0472   -6.9906   -2.4217 N   0  3  0  0  0  0
   -4.6375    0.4013    0.8960 H   0  0  0  0  0  0
   -2.5120   -3.0944    2.1509 H   0  0  0  0  0  0
   -2.5152    1.5498    0.4678 H   0  0  0  0  0  0
   -0.3800   -1.9602    1.7274 H   0  0  0  0  0  0
    1.6398   -0.9002    1.3322 H   0  0  0  0  0  0
    3.7254   -0.8405   -0.4780 H   0  0  0  0  0  0
    3.7664    2.8935    1.6947 H   0  0  0  0  0  0
    7.4543    0.9802    0.6404 H   0  0  0  0  0  0
    6.5111   -0.2238   -2.5602 H   0  0  0  0  0  0
    6.6330   -2.2868    1.1979 H   0  0  0  0  0  0
    7.7944   -2.0397   -3.6058 H   0  0  0  0  0  0
    7.9106   -4.1102    0.1624 H   0  0  0  0  0  0
    8.9142   -4.0569   -3.4879 H   0  0  0  0  0  0
   10.7041   -3.6361   -1.8646 H   0  0  0  0  0  0
   10.0042   -4.7676   -0.7355 H   0  0  0  0  0  0
    7.6359   -5.9490   -1.4758 H   0  0  0  0  0  0
    6.9820   -5.4993   -3.0301 H   0  0  0  0  0  0
   11.1522   -5.4699   -3.4838 H   0  0  0  0  0  0
   11.8389   -5.8887   -1.9218 H   0  0  0  0  0  0
    8.1312   -7.7436   -3.0820 H   0  0  0  0  0  0
    8.8777   -6.6081   -4.1958 H   0  0  0  0  0  0
   10.5605   -7.7393   -2.8651 H   0  0  0  0  0  0
    9.8717   -7.2421   -1.4592 H   0  0  0  0  0  0
  1  2  1  0  0  0
  2  3  2  0  0  0
  2  4  1  0  0  0
  3  5  1  0  0  0
  3 34  1  0  0  0
  4  6  2  0  0  0
  4 35  1  0  0  0
  5  7  2  0  0  0
  5 36  1  0  0  0
  6  7  1  0  0  0
  6 37  1  0  0  0
  7  8  1  0  0  0
  8  9  1  0  0  0
  8 10  2  0  0  0
  9 11  2  0  0  0
 10 12  1  0  0  0
 10 38  1  0  0  0
 11 12  1  0  0  0
 12 13  1  0  0  0
 13 14  2  0  0  0
 13 15  1  0  0  0
 14 16  1  0  0  0
 14 39  1  0  0  0
 15 17  2  0  0  0
 15 40  1  0  0  0
 16 18  1  0  0  0
 16 19  2  0  0  0
 17 20  1  0  0  0
 17 19  1  0  0  0
 18 21  2  0  0  0
 18 22  1  0  0  0
 19 41  1  0  0  0
 20 23  2  0  0  0
 20 24  1  0  0  0
 21 25  1  0  0  0
 21 42  1  0  0  0
 22 26  2  0  0  0
 22 43  1  0  0  0
 25 27  2  0  0  0
 25 44  1  0  0  0
 26 27  1  0  0  0
 26 45  1  0  0  0
 27 28  1  0  0  0
 28 29  1  0  0  0
 28 30  1  0  0  0
 28 46  1  0  0  0
 29 31  1  0  0  0
 29 47  1  0  0  0
 29 48  1  0  0  0
 30 32  1  0  0  0
 30 49  1  0  0  0
 30 50  1  0  0  0
 31 33  1  0  0  0
 31 51  1  0  0  0
 31 52  1  0  0  0
 32 33  1  0  0  0
 32 53  1  0  0  0
 32 54  1  0  0  0
 33 55  1  0  0  0
 33 56  1  0  0  0
M  CHG  2  24  -1  33   1
M  END
> <i_epik_Tot_Q>
0

> <i_epik_Tot_abs_Q>
2

> <i_lp_mmshare_version>
62121

> <i_m_Source_File_Index>
5

> <i_phase_Input_Structure_Number>
5

> <i_phase_Reference_Structure>
41

> <i_phase_Structure_Number>
5

> <Molecule Name>
6

> <Rotatable Bonds>
5

> <i_f3d_flags>
0

> <b_lp_Chiralities_Consistent>
1

> <r_canvas_IC50_human_P2Y14R,_nM>
115

> <r_canvas_pIC50>
6.93930215964639

> <r_epik_Charging_Adjusted_Penalty>
0.00131429387641412

> <r_epik_Ionization_Penalty>
  0.0008

> <r_epik_Ionization_Penalty_Charging>
  0.0008

> <r_epik_Ionization_Penalty_Neutral>
  0.0000

> <r_epik_State_Penalty>
  0.0006

> <r_lp_Energy>
54.62741

> <r_lp_tautomer_probability>
1

> <r_phase_Similarity_to_Reference>
0.886859288688091

> <s_canvas_CHEMBLID>
CID 164585468

> <s_canvas_Compound>
71

> <s_canvas_Paper>
Junker2016

> <s_epik_cmdline>
J2VwaWtfcHl0aG9uJywgJy1waCcsICc3LjAnLCAnLXRuJywgJzgnLCAnLW1hJywgJzUwMCcsICctaW1hZScsICc8aW5maWxlLm1hZT4nLCAnLW9tYWUnLCAnPG91dGZpbGUubWFlPic=

> <s_epik_input>
QnJjMVtjSF1bY0hdYyhbY0hdW2NIXTEpLWMybm5uKFtjSF0yKS1jM1tjSF1jKFtjSF1jKFtjSF0zKUMoPU8pW09IXSktYzRbY0hdW2NIXWMoW2NIXVtjSF00KVtDSF01W0NIMl1bQ0gyXVtOSF1bQ0gyXVtDSDJdNQ==

> <s_lp_Force_Field>
S-OPLS

> <s_lp_Variant>
6-1

> <s_m_Source_File>
database-aligned.sdf

> <s_m_Source_Path>
/data/matteo/P2Y14-antagonists-piperidineDerivatives-Wen2023/14052024-optimized-alignment

> <s_m_entry_id>
5

> <s_m_entry_name>
database-aligned.5

> <s_m_job_name>
align_ligands_1

> <s_phase_Alignment_Method>
snapped core

> <s_phase_Alignment_Reason>


> <s_phase_Core_SMARTS>
a1aaaaa1-a2aa(aa2)-a3aaaa(a3)-a4aaa(aa4)A5AA[A]AA5

$$$$
7
                    3D
 Schrodinger Suite 2023-2.
 53 57  0  0  1  0            999 V2000
   -5.5815   -0.6400    1.2907 Br  0  0  0  0  0  0
   -3.6788   -0.6191    1.2664 C   0  0  0  0  0  0
   -2.7814    0.7754    0.7533 S   0  0  0  0  0  0
   -2.8919   -1.6716    1.6412 C   0  0  0  0  0  0
   -1.2791   -0.0795    1.0518 C   0  0  0  0  0  0
   -1.5056   -1.3550    1.5152 C   0  0  0  0  0  0
    0.0041    0.5726    0.8072 C   0  0  0  0  0  0
    0.0745    1.8131    0.3572 N   0  0  0  0  0  0
    1.2788    0.0570    0.9868 C   0  0  0  0  0  0
    1.4087    2.1505    0.2272 N   0  0  0  0  0  0
    2.1133    1.0787    0.6116 N   0  0  0  0  0  0
    3.5729    1.0430    0.6162 C   0  0  0  0  0  0
    4.2688   -0.0378   -0.0014 C   0  0  0  0  0  0
    4.3095    2.0826    1.2307 C   0  0  0  0  0  0
    5.6959   -0.0428    0.0147 C   0  0  0  0  0  0
    5.7140    2.0823    1.2549 C   0  0  0  0  0  0
    6.4845   -1.1328   -0.6109 C   0  0  0  0  0  0
    6.3738    1.0063    0.6388 C   0  0  0  0  0  0
    6.4824    3.1926    1.9177 C   0  0  0  0  0  0
    6.8196   -1.0713   -1.9653 C   0  0  0  0  0  0
    6.8885   -2.2318    0.1496 C   0  0  0  0  0  0
    7.7329    3.1460    1.9172 O   0  0  0  0  0  0
    5.8483    4.1301    2.4513 O   0  5  0  0  0  0
    7.5469   -2.1010   -2.5562 C   0  0  0  0  0  0
    7.6134   -3.2639   -0.4389 C   0  0  0  0  0  0
    7.9469   -3.2050   -1.7964 C   0  0  0  0  0  0
    8.7323   -4.3448   -2.4511 C   0  0  0  0  0  0
    7.9157   -5.6578   -2.4890 C   0  0  0  0  0  0
   10.1198   -4.5548   -1.7988 C   0  0  0  0  0  0
    8.6977   -6.8138   -3.1399 C   0  0  0  0  0  0
   10.9018   -5.7110   -2.4500 C   0  0  0  0  0  0
   10.0472   -6.9906   -2.4217 N   0  3  0  0  0  0
   -3.2490   -2.6287    1.9912 H   0  0  0  0  0  0
   -0.7316   -2.0652    1.7665 H   0  0  0  0  0  0
    1.6338   -0.9022    1.3334 H   0  0  0  0  0  0
    3.7253   -0.8404   -0.4782 H   0  0  0  0  0  0
    3.7662    2.8928    1.6954 H   0  0  0  0  0  0
    7.4542    0.9787    0.6407 H   0  0  0  0  0  0
    6.5111   -0.2237   -2.5600 H   0  0  0  0  0  0
    6.6330   -2.2865    1.1979 H   0  0  0  0  0  0
    7.7942   -2.0393   -3.6058 H   0  0  0  0  0  0
    7.9104   -4.1101    0.1627 H   0  0  0  0  0  0
    8.9139   -4.0563   -3.4877 H   0  0  0  0  0  0
    7.6361   -5.9484   -1.4756 H   0  0  0  0  0  0
    6.9826   -5.4987   -3.0307 H   0  0  0  0  0  0
   10.7036   -3.6361   -1.8655 H   0  0  0  0  0  0
   10.0036   -4.7674   -0.7356 H   0  0  0  0  0  0
    8.1309   -7.7431   -3.0809 H   0  0  0  0  0  0
    8.8769   -6.6083   -4.1958 H   0  0  0  0  0  0
   11.1527   -5.4694   -3.4835 H   0  0  0  0  0  0
   11.8382   -5.8884   -1.9208 H   0  0  0  0  0  0
    9.8715   -7.2416   -1.4592 H   0  0  0  0  0  0
   10.5605   -7.7390   -2.8653 H   0  0  0  0  0  0
  1  2  1  0  0  0
  2  3  1  0  0  0
  2  4  2  0  0  0
  3  5  1  0  0  0
  4  6  1  0  0  0
  4 33  1  0  0  0
  5  7  1  0  0  0
  5  6  2  0  0  0
  6 34  1  0  0  0
  7  8  1  0  0  0
  7  9  2  0  0  0
  8 10  2  0  0  0
  9 11  1  0  0  0
  9 35  1  0  0  0
 10 11  1  0  0  0
 11 12  1  0  0  0
 12 13  2  0  0  0
 12 14  1  0  0  0
 13 15  1  0  0  0
 13 36  1  0  0  0
 14 16  2  0  0  0
 14 37  1  0  0  0
 15 17  1  0  0  0
 15 18  2  0  0  0
 16 19  1  0  0  0
 16 18  1  0  0  0
 17 20  2  0  0  0
 17 21  1  0  0  0
 18 38  1  0  0  0
 19 22  2  0  0  0
 19 23  1  0  0  0
 20 24  1  0  0  0
 20 39  1  0  0  0
 21 25  2  0  0  0
 21 40  1  0  0  0
 24 26  2  0  0  0
 24 41  1  0  0  0
 25 26  1  0  0  0
 25 42  1  0  0  0
 26 27  1  0  0  0
 27 28  1  0  0  0
 27 29  1  0  0  0
 27 43  1  0  0  0
 28 30  1  0  0  0
 28 44  1  0  0  0
 28 45  1  0  0  0
 29 31  1  0  0  0
 29 46  1  0  0  0
 29 47  1  0  0  0
 30 32  1  0  0  0
 30 48  1  0  0  0
 30 49  1  0  0  0
 31 32  1  0  0  0
 31 50  1  0  0  0
 31 51  1  0  0  0
 32 52  1  0  0  0
 32 53  1  0  0  0
M  CHG  2  23  -1  32   1
M  END
> <i_epik_Tot_Q>
0

> <i_epik_Tot_abs_Q>
2

> <i_lp_mmshare_version>
62121

> <i_m_Source_File_Index>
6

> <i_phase_Input_Structure_Number>
6

> <i_phase_Reference_Structure>
41

> <i_phase_Structure_Number>
6

> <Molecule Name>
7

> <Rotatable Bonds>
5

> <i_f3d_flags>
0

> <b_lp_Chiralities_Consistent>
1

> <r_canvas_IC50_human_P2Y14R,_nM>
91

> <r_canvas_pIC50>
7.04095860767891

> <r_epik_Charging_Adjusted_Penalty>
0.00131429387641412

> <r_epik_Ionization_Penalty>
  0.0008

> <r_epik_Ionization_Penalty_Charging>
  0.0008

> <r_epik_Ionization_Penalty_Neutral>
  0.0000

> <r_epik_State_Penalty>
  0.0006

> <r_lp_Energy>
47.17344

> <r_lp_tautomer_probability>
1

> <r_phase_Similarity_to_Reference>
0.82189112185575

> <s_canvas_CHEMBLID>
CID 164585465

> <s_canvas_Compound>
75

> <s_canvas_Paper>
Junker2016

> <s_epik_cmdline>
J2VwaWtfcHl0aG9uJywgJy1waCcsICc3LjAnLCAnLXRuJywgJzgnLCAnLW1hJywgJzUwMCcsICctaW1hZScsICc8aW5maWxlLm1hZT4nLCAnLW9tYWUnLCAnPG91dGZpbGUubWFlPic=

> <s_epik_input>
QnJjMXNjKFtjSF1bY0hdMSktYzJubm4oW2NIXTIpLWMzW2NIXWMoW2NIXWMoW2NIXTMpQyg9TylbT0hdKS1jNFtjSF1bY0hdYyhbY0hdW2NIXTQpW0NIXTVbQ0gyXVtDSDJdW05IXVtDSDJdW0NIMl01

> <s_lp_Force_Field>
S-OPLS

> <s_lp_Variant>
7-1

> <s_m_Source_File>
database-aligned.sdf

> <s_m_Source_Path>
/data/matteo/P2Y14-antagonists-piperidineDerivatives-Wen2023/14052024-optimized-alignment

> <s_m_entry_id>
6

> <s_m_entry_name>
database-aligned.6

> <s_m_job_name>
align_ligands_1

> <s_phase_Alignment_Method>
snapped core

> <s_phase_Alignment_Reason>


> <s_phase_Core_SMARTS>
a1aaaa1-a2aaaa(a2)-a3aaa(aa3)A4AA[A]AA4

$$$$
8
                    3D
 Schrodinger Suite 2023-2.
 59 63  0  0  1  0            999 V2000
    7.7329    3.1460    1.9172 O   0  0  0  0  0  0
    6.4824    3.1926    1.9177 C   0  0  0  0  0  0
    5.8483    4.1301    2.4513 O   0  5  0  0  0  0
    5.7140    2.0823    1.2549 C   0  0  0  0  0  0
    4.3095    2.0826    1.2307 C   0  0  0  0  0  0
    6.3738    1.0063    0.6388 C   0  0  0  0  0  0
    3.5729    1.0430    0.6162 C   0  0  0  0  0  0
    5.6959   -0.0428    0.0147 C   0  0  0  0  0  0
    2.1133    1.0787    0.6116 N   0  0  0  0  0  0
    4.2688   -0.0378   -0.0014 C   0  0  0  0  0  0
    6.4845   -1.1328   -0.6109 C   0  0  0  0  0  0
    1.4087    2.1505    0.2272 N   0  0  0  0  0  0
    1.2788    0.0570    0.9868 C   0  0  0  0  0  0
    6.8196   -1.0713   -1.9653 C   0  0  0  0  0  0
    6.8885   -2.2318    0.1496 C   0  0  0  0  0  0
    0.0745    1.8131    0.3572 N   0  0  0  0  0  0
    0.0041    0.5726    0.8072 C   0  0  0  0  0  0
    7.5469   -2.1010   -2.5562 C   0  0  0  0  0  0
    7.6134   -3.2639   -0.4389 C   0  0  0  0  0  0
   -1.2977   -0.1255    1.0677 C   0  0  0  0  0  0
    7.9469   -3.2050   -1.7964 C   0  0  0  0  0  0
   -1.3030   -1.4321    1.5414 C   0  0  0  0  0  0
   -2.4987    0.5343    0.8355 C   0  0  0  0  0  0
    8.7323   -4.3448   -2.4511 C   0  0  0  0  0  0
   -2.5092   -2.0790    1.7828 C   0  0  0  0  0  0
   -3.7049   -0.1126    1.0769 C   0  0  0  0  0  0
    7.9157   -5.6578   -2.4890 C   0  0  0  0  0  0
   10.1198   -4.5548   -1.7988 C   0  0  0  0  0  0
   -3.7102   -1.4192    1.5505 C   0  0  0  0  0  0
    8.6977   -6.8138   -3.1399 C   0  0  0  0  0  0
   10.9018   -5.7110   -2.4500 C   0  0  0  0  0  0
   -5.0220   -2.1299    1.8156 C   0  0  0  0  0  0
   10.0472   -6.9906   -2.4217 N   0  3  0  0  0  0
    3.7662    2.8933    1.6946 H   0  0  0  0  0  0
    7.4542    0.9798    0.6400 H   0  0  0  0  0  0
    3.7251   -0.8400   -0.4787 H   0  0  0  0  0  0
    1.6395   -0.9001    1.3333 H   0  0  0  0  0  0
    6.5110   -0.2237   -2.5599 H   0  0  0  0  0  0
    6.6329   -2.2863    1.1979 H   0  0  0  0  0  0
    7.7941   -2.0390   -3.6059 H   0  0  0  0  0  0
    7.9103   -4.1100    0.1629 H   0  0  0  0  0  0
   -0.3800   -1.9602    1.7276 H   0  0  0  0  0  0
   -2.5152    1.5497    0.4678 H   0  0  0  0  0  0
    8.9138   -4.0560   -3.4877 H   0  0  0  0  0  0
   -2.5094   -3.0946    2.1509 H   0  0  0  0  0  0
   -4.6342    0.4069    0.8940 H   0  0  0  0  0  0
    7.6372   -5.9483   -1.4753 H   0  0  0  0  0  0
    6.9819   -5.4986   -3.0296 H   0  0  0  0  0  0
   10.7034   -3.6358   -1.8643 H   0  0  0  0  0  0
   10.0029   -4.7682   -0.7358 H   0  0  0  0  0  0
    8.1302   -7.7428   -3.0816 H   0  0  0  0  0  0
    8.8766   -6.6075   -4.1958 H   0  0  0  0  0  0
   11.1522   -5.4687   -3.4835 H   0  0  0  0  0  0
   11.8386   -5.8875   -1.9211 H   0  0  0  0  0  0
   -5.8750   -1.4900    1.5885 H   0  0  0  0  0  0
   -5.0889   -2.4243    2.8631 H   0  0  0  0  0  0
   -5.0984   -3.0268    1.2007 H   0  0  0  0  0  0
    9.8709   -7.2405   -1.4590 H   0  0  0  0  0  0
   10.5605   -7.7387   -2.8660 H   0  0  0  0  0  0
  1  2  2  0  0  0
  2  3  1  0  0  0
  2  4  1  0  0  0
  4  5  2  0  0  0
  4  6  1  0  0  0
  5  7  1  0  0  0
  5 34  1  0  0  0
  6  8  2  0  0  0
  6 35  1  0  0  0
  7  9  1  0  0  0
  7 10  2  0  0  0
  8 11  1  0  0  0
  8 10  1  0  0  0
  9 12  1  0  0  0
  9 13  1  0  0  0
 10 36  1  0  0  0
 11 14  2  0  0  0
 11 15  1  0  0  0
 12 16  2  0  0  0
 13 17  2  0  0  0
 13 37  1  0  0  0
 14 18  1  0  0  0
 14 38  1  0  0  0
 15 19  2  0  0  0
 15 39  1  0  0  0
 16 17  1  0  0  0
 17 20  1  0  0  0
 18 21  2  0  0  0
 18 40  1  0  0  0
 19 21  1  0  0  0
 19 41  1  0  0  0
 20 22  2  0  0  0
 20 23  1  0  0  0
 21 24  1  0  0  0
 22 25  1  0  0  0
 22 42  1  0  0  0
 23 26  2  0  0  0
 23 43  1  0  0  0
 24 27  1  0  0  0
 24 28  1  0  0  0
 24 44  1  0  0  0
 25 29  2  0  0  0
 25 45  1  0  0  0
 26 29  1  0  0  0
 26 46  1  0  0  0
 27 30  1  0  0  0
 27 47  1  0  0  0
 27 48  1  0  0  0
 28 31  1  0  0  0
 28 49  1  0  0  0
 28 50  1  0  0  0
 29 32  1  0  0  0
 30 33  1  0  0  0
 30 51  1  0  0  0
 30 52  1  0  0  0
 31 33  1  0  0  0
 31 53  1  0  0  0
 31 54  1  0  0  0
 32 55  1  0  0  0
 32 56  1  0  0  0
 32 57  1  0  0  0
 33 58  1  0  0  0
 33 59  1  0  0  0
M  CHG  2   3  -1  33   1
M  END
> <i_epik_Tot_Q>
0

> <i_epik_Tot_abs_Q>
2

> <i_lp_mmshare_version>
62121

> <i_m_Source_File_Index>
7

> <i_phase_Input_Structure_Number>
7

> <i_phase_Reference_Structure>
41

> <i_phase_Structure_Number>
7

> <Molecule Name>
8

> <Rotatable Bonds>
5

> <i_f3d_flags>
0

> <b_lp_Chiralities_Consistent>
1

> <r_canvas_IC50_human_P2Y14R,_nM>
237

> <r_canvas_pIC50>
6.6252516539899

> <r_epik_Charging_Adjusted_Penalty>
0.00131429387641412

> <r_epik_Ionization_Penalty>
  0.0008

> <r_epik_Ionization_Penalty_Charging>
  0.0008

> <r_epik_Ionization_Penalty_Neutral>
  0.0000

> <r_epik_State_Penalty>
  0.0006

> <r_lp_Energy>
53.620543

> <r_lp_tautomer_probability>
1

> <r_phase_Similarity_to_Reference>
0.90644777364296

> <s_canvas_CHEMBLID>
CID 164585453

> <s_canvas_Compound>
76

> <s_canvas_Paper>
Junker2016

> <s_epik_cmdline>
J2VwaWtfcHl0aG9uJywgJy1waCcsICc3LjAnLCAnLXRuJywgJzgnLCAnLW1hJywgJzUwMCcsICctaW1hZScsICc8aW5maWxlLm1hZT4nLCAnLW9tYWUnLCAnPG91dGZpbGUubWFlPic=

> <s_epik_input>
W2NIXTFbY0hdYyhbQ0gzXSlbY0hdW2NIXWMxLWMoW2NIXTIpbm5uMi1jKFtjSF1jM0MoPU8pW09IXSlbY0hdYyhbY0hdMyktYzRbY0hdW2NIXWMoW2NIXVtjSF00KVtDSF01W0NIMl1bQ0gyXVtOSF1bQ0gyXVtDSDJdNQ==

> <s_lp_Force_Field>
S-OPLS

> <s_lp_Variant>
8-1

> <s_m_Source_File>
database-aligned.sdf

> <s_m_Source_Path>
/data/matteo/P2Y14-antagonists-piperidineDerivatives-Wen2023/14052024-optimized-alignment

> <s_m_entry_id>
7

> <s_m_entry_name>
database-aligned.7

> <s_m_job_name>
align_ligands_1

> <s_phase_Alignment_Method>
snapped core

> <s_phase_Alignment_Reason>


> <s_phase_Core_SMARTS>
a1aaaaa1-a2aa(aa2)-a3aaaa(a3)-a4aaa(aa4)A5AA[A]AA5

$$$$
9
                    3D
 Schrodinger Suite 2023-2.
 65 69  0  0  1  0            999 V2000
    7.7329    3.1460    1.9172 O   0  0  0  0  0  0
    6.4824    3.1926    1.9177 C   0  0  0  0  0  0
    5.8483    4.1301    2.4513 O   0  5  0  0  0  0
    5.7140    2.0823    1.2549 C   0  0  0  0  0  0
    4.3095    2.0826    1.2307 C   0  0  0  0  0  0
    6.3738    1.0063    0.6388 C   0  0  0  0  0  0
    3.5729    1.0430    0.6162 C   0  0  0  0  0  0
    5.6959   -0.0428    0.0147 C   0  0  0  0  0  0
    2.1133    1.0787    0.6116 N   0  0  0  0  0  0
    4.2688   -0.0378   -0.0014 C   0  0  0  0  0  0
    6.4845   -1.1328   -0.6109 C   0  0  0  0  0  0
    1.4087    2.1505    0.2272 N   0  0  0  0  0  0
    1.2788    0.0570    0.9868 C   0  0  0  0  0  0
    6.8196   -1.0713   -1.9653 C   0  0  0  0  0  0
    6.8885   -2.2318    0.1496 C   0  0  0  0  0  0
    0.0745    1.8131    0.3572 N   0  0  0  0  0  0
    0.0041    0.5726    0.8072 C   0  0  0  0  0  0
    7.5469   -2.1010   -2.5562 C   0  0  0  0  0  0
    7.6134   -3.2639   -0.4389 C   0  0  0  0  0  0
   -1.2977   -0.1255    1.0677 C   0  0  0  0  0  0
    7.9469   -3.2050   -1.7964 C   0  0  0  0  0  0
   -2.4987    0.5343    0.8355 C   0  0  0  0  0  0
   -1.3030   -1.4321    1.5414 C   0  0  0  0  0  0
    8.7323   -4.3448   -2.4511 C   0  0  0  0  0  0
   -3.7049   -0.1126    1.0769 C   0  0  0  0  0  0
   -2.5092   -2.0790    1.7828 C   0  0  0  0  0  0
   10.1198   -4.5548   -1.7988 C   0  0  0  0  0  0
    7.9157   -5.6578   -2.4890 C   0  0  0  0  0  0
   -3.7102   -1.4192    1.5505 C   0  0  0  0  0  0
   10.9018   -5.7110   -2.4500 C   0  0  0  0  0  0
    8.6977   -6.8138   -3.1399 C   0  0  0  0  0  0
   -5.0274   -2.1209    1.8263 C   0  0  0  0  0  0
   10.0472   -6.9906   -2.4217 N   0  3  0  0  0  0
   -5.5107   -1.8965    3.2667 C   0  0  0  0  0  0
   -6.8410   -2.5986    3.5592 C   0  0  0  0  0  0
    3.7662    2.8934    1.6947 H   0  0  0  0  0  0
    7.4543    0.9799    0.6401 H   0  0  0  0  0  0
    3.7252   -0.8397   -0.4793 H   0  0  0  0  0  0
    1.6394   -0.8999    1.3333 H   0  0  0  0  0  0
    6.5111   -0.2238   -2.5602 H   0  0  0  0  0  0
    6.6332   -2.2867    1.1980 H   0  0  0  0  0  0
    7.7943   -2.0396   -3.6059 H   0  0  0  0  0  0
    7.9106   -4.1101    0.1625 H   0  0  0  0  0  0
   -2.5153    1.5500    0.4686 H   0  0  0  0  0  0
   -0.3800   -1.9598    1.7285 H   0  0  0  0  0  0
    8.9141   -4.0566   -3.4878 H   0  0  0  0  0  0
   -4.6355    0.4062    0.8984 H   0  0  0  0  0  0
   -2.5078   -3.0932    2.1547 H   0  0  0  0  0  0
   10.7036   -3.6360   -1.8649 H   0  0  0  0  0  0
   10.0040   -4.7674   -0.7356 H   0  0  0  0  0  0
    7.6359   -5.9486   -1.4757 H   0  0  0  0  0  0
    6.9823   -5.4988   -3.0302 H   0  0  0  0  0  0
   11.1527   -5.4690   -3.4834 H   0  0  0  0  0  0
   11.8385   -5.8878   -1.9211 H   0  0  0  0  0  0
    8.1304   -7.7429   -3.0814 H   0  0  0  0  0  0
    8.8766   -6.6081   -4.1959 H   0  0  0  0  0  0
   -5.7781   -1.7627    1.1204 H   0  0  0  0  0  0
   -4.9116   -3.1883    1.6330 H   0  0  0  0  0  0
   10.5605   -7.7391   -2.8652 H   0  0  0  0  0  0
   -4.7548   -2.2556    3.9663 H   0  0  0  0  0  0
   -5.6213   -0.8277    3.4532 H   0  0  0  0  0  0
   -7.1554   -2.4201    4.5877 H   0  0  0  0  0  0
   -6.7567   -3.6767    3.4197 H   0  0  0  0  0  0
   -7.6312   -2.2352    2.9021 H   0  0  0  0  0  0
    9.8716   -7.2419   -1.4593 H   0  0  0  0  0  0
  1  2  2  0  0  0
  2  3  1  0  0  0
  2  4  1  0  0  0
  4  5  2  0  0  0
  4  6  1  0  0  0
  5  7  1  0  0  0
  5 36  1  0  0  0
  6  8  2  0  0  0
  6 37  1  0  0  0
  7  9  1  0  0  0
  7 10  2  0  0  0
  8 11  1  0  0  0
  8 10  1  0  0  0
  9 12  1  0  0  0
  9 13  1  0  0  0
 10 38  1  0  0  0
 11 14  2  0  0  0
 11 15  1  0  0  0
 12 16  2  0  0  0
 13 17  2  0  0  0
 13 39  1  0  0  0
 14 18  1  0  0  0
 14 40  1  0  0  0
 15 19  2  0  0  0
 15 41  1  0  0  0
 16 17  1  0  0  0
 17 20  1  0  0  0
 18 21  2  0  0  0
 18 42  1  0  0  0
 19 21  1  0  0  0
 19 43  1  0  0  0
 20 22  2  0  0  0
 20 23  1  0  0  0
 21 24  1  0  0  0
 22 25  1  0  0  0
 22 44  1  0  0  0
 23 26  2  0  0  0
 23 45  1  0  0  0
 24 27  1  0  0  0
 24 28  1  0  0  0
 24 46  1  0  0  0
 25 29  2  0  0  0
 25 47  1  0  0  0
 26 29  1  0  0  0
 26 48  1  0  0  0
 27 30  1  0  0  0
 27 49  1  0  0  0
 27 50  1  0  0  0
 28 31  1  0  0  0
 28 51  1  0  0  0
 28 52  1  0  0  0
 29 32  1  0  0  0
 30 33  1  0  0  0
 30 53  1  0  0  0
 30 54  1  0  0  0
 31 33  1  0  0  0
 31 55  1  0  0  0
 31 56  1  0  0  0
 32 34  1  0  0  0
 32 57  1  0  0  0
 32 58  1  0  0  0
 33 59  1  0  0  0
 33 65  1  0  0  0
 34 35  1  0  0  0
 34 60  1  0  0  0
 34 61  1  0  0  0
 35 62  1  0  0  0
 35 63  1  0  0  0
 35 64  1  0  0  0
M  CHG  2   3  -1  33   1
M  END
> <i_epik_Tot_Q>
0

> <i_epik_Tot_abs_Q>
2

> <i_lp_mmshare_version>
62121

> <i_m_Source_File_Index>
8

> <i_phase_Input_Structure_Number>
8

> <i_phase_Reference_Structure>
41

> <i_phase_Structure_Number>
8

> <Molecule Name>
9

> <Rotatable Bonds>
7

> <i_f3d_flags>
0

> <b_lp_Chiralities_Consistent>
1

> <r_canvas_IC50_human_P2Y14R,_nM>
72.4

> <r_canvas_pIC50>
7.14026143380285

> <r_epik_Charging_Adjusted_Penalty>
0.00131429387641412

> <r_epik_Ionization_Penalty>
  0.0008

> <r_epik_Ionization_Penalty_Charging>
  0.0008

> <r_epik_Ionization_Penalty_Neutral>
  0.0000

> <r_epik_State_Penalty>
  0.0006

> <r_lp_Energy>
56.910106

> <r_lp_tautomer_probability>
1

> <r_phase_Similarity_to_Reference>
0.905996183772683

> <s_canvas_CHEMBLID>
CID 164585446

> <s_canvas_Compound>
77

> <s_canvas_Paper>
Junker2016

> <s_epik_cmdline>
J2VwaWtfcHl0aG9uJywgJy1waCcsICc3LjAnLCAnLXRuJywgJzgnLCAnLW1hJywgJzUwMCcsICctaW1hZScsICc8aW5maWxlLm1hZT4nLCAnLW9tYWUnLCAnPG91dGZpbGUubWFlPic=

> <s_epik_input>
W0NIM11bQ0gyXVtDSDJdYyhbY0hdW2NIXTEpW2NIXVtjSF1jMS1jKFtjSF0yKW5ubjItYyhbY0hdYzNDKD1PKVtPSF0pW2NIXWMoW2NIXTMpLWM0W2NIXVtjSF1jKFtjSF1bY0hdNClbQ0hdNVtDSDJdW0NIMl1bTkhdW0NIMl1bQ0gyXTU=

> <s_lp_Force_Field>
S-OPLS

> <s_lp_Variant>
9-1

> <s_m_Source_File>
database-aligned.sdf

> <s_m_Source_Path>
/data/matteo/P2Y14-antagonists-piperidineDerivatives-Wen2023/14052024-optimized-alignment

> <s_m_entry_id>
8

> <s_m_entry_name>
database-aligned.8

> <s_m_job_name>
align_ligands_1

> <s_phase_Alignment_Method>
snapped core

> <s_phase_Alignment_Reason>


> <s_phase_Core_SMARTS>
a1aaaaa1-a2aa(aa2)-a3aaaa(a3)-a4aaa(aa4)A5AA[A]AA5

$$$$
10
                    3D
 Schrodinger Suite 2023-2.
 65 69  0  0  1  0            999 V2000
    7.7329    3.1460    1.9172 O   0  0  0  0  0  0
    6.4824    3.1926    1.9177 C   0  0  0  0  0  0
    5.8483    4.1301    2.4513 O   0  5  0  0  0  0
    5.7140    2.0823    1.2549 C   0  0  0  0  0  0
    4.3095    2.0826    1.2307 C   0  0  0  0  0  0
    6.3738    1.0063    0.6388 C   0  0  0  0  0  0
    3.5729    1.0430    0.6162 C   0  0  0  0  0  0
    5.6959   -0.0428    0.0147 C   0  0  0  0  0  0
    2.1133    1.0787    0.6116 N   0  0  0  0  0  0
    4.2688   -0.0378   -0.0014 C   0  0  0  0  0  0
    6.4845   -1.1328   -0.6109 C   0  0  0  0  0  0
    1.4087    2.1505    0.2272 N   0  0  0  0  0  0
    1.2788    0.0570    0.9868 C   0  0  0  0  0  0
    6.8196   -1.0713   -1.9653 C   0  0  0  0  0  0
    6.8885   -2.2318    0.1496 C   0  0  0  0  0  0
    0.0745    1.8131    0.3572 N   0  0  0  0  0  0
    0.0041    0.5726    0.8072 C   0  0  0  0  0  0
    7.5469   -2.1010   -2.5562 C   0  0  0  0  0  0
    7.6134   -3.2639   -0.4389 C   0  0  0  0  0  0
   -1.2977   -0.1255    1.0677 C   0  0  0  0  0  0
    7.9469   -3.2050   -1.7964 C   0  0  0  0  0  0
   -2.4987    0.5343    0.8355 C   0  0  0  0  0  0
   -1.3030   -1.4321    1.5414 C   0  0  0  0  0  0
    8.7323   -4.3448   -2.4511 C   0  0  0  0  0  0
   -3.7049   -0.1126    1.0769 C   0  0  0  0  0  0
   -2.5092   -2.0790    1.7828 C   0  0  0  0  0  0
    7.9157   -5.6578   -2.4890 C   0  0  0  0  0  0
   10.1198   -4.5548   -1.7988 C   0  0  0  0  0  0
   -3.7102   -1.4192    1.5505 C   0  0  0  0  0  0
    8.6977   -6.8138   -3.1399 C   0  0  0  0  0  0
   10.9018   -5.7110   -2.4500 C   0  0  0  0  0  0
   -5.0376   -2.1222    1.8129 C   0  0  0  0  0  0
   10.0472   -6.9906   -2.4217 N   0  3  0  0  0  0
   -5.2068   -2.4831    3.2972 C   0  0  0  0  0  0
   -5.2205   -3.3498    0.9065 C   0  0  0  0  0  0
    3.7659    2.8931    1.6949 H   0  0  0  0  0  0
    7.4543    0.9801    0.6407 H   0  0  0  0  0  0
    3.7252   -0.8399   -0.4789 H   0  0  0  0  0  0
    1.6395   -0.8997    1.3332 H   0  0  0  0  0  0
    6.5111   -0.2237   -2.5602 H   0  0  0  0  0  0
    6.6331   -2.2867    1.1980 H   0  0  0  0  0  0
    7.7943   -2.0395   -3.6059 H   0  0  0  0  0  0
    7.9105   -4.1101    0.1625 H   0  0  0  0  0  0
   -2.5151    1.5497    0.4677 H   0  0  0  0  0  0
   -0.3800   -1.9601    1.7276 H   0  0  0  0  0  0
    8.9141   -4.0565   -3.4878 H   0  0  0  0  0  0
   -4.6327    0.4092    0.8932 H   0  0  0  0  0  0
   -2.5032   -3.0943    2.1508 H   0  0  0  0  0  0
    7.6351   -5.9485   -1.4759 H   0  0  0  0  0  0
    6.9826   -5.4986   -3.0309 H   0  0  0  0  0  0
   10.7036   -3.6359   -1.8657 H   0  0  0  0  0  0
   10.0043   -4.7667   -0.7353 H   0  0  0  0  0  0
    8.1303   -7.7429   -3.0819 H   0  0  0  0  0  0
    8.8767   -6.6077   -4.1958 H   0  0  0  0  0  0
   11.1524   -5.4689   -3.4835 H   0  0  0  0  0  0
   11.8388   -5.8876   -1.9214 H   0  0  0  0  0  0
   -5.8383   -1.4246    1.5647 H   0  0  0  0  0  0
    9.8717   -7.2420   -1.4593 H   0  0  0  0  0  0
   -5.1342   -1.5951    3.9259 H   0  0  0  0  0  0
   -4.4475   -3.1913    3.6302 H   0  0  0  0  0  0
   -6.1813   -2.9362    3.4803 H   0  0  0  0  0  0
   -5.1574   -3.0710   -0.1460 H   0  0  0  0  0  0
   -6.1952   -3.8112    1.0659 H   0  0  0  0  0  0
   -4.4621   -4.1096    1.0969 H   0  0  0  0  0  0
   10.5604   -7.7387   -2.8656 H   0  0  0  0  0  0
  1  2  2  0  0  0
  2  3  1  0  0  0
  2  4  1  0  0  0
  4  5  2  0  0  0
  4  6  1  0  0  0
  5  7  1  0  0  0
  5 36  1  0  0  0
  6  8  2  0  0  0
  6 37  1  0  0  0
  7  9  1  0  0  0
  7 10  2  0  0  0
  8 11  1  0  0  0
  8 10  1  0  0  0
  9 12  1  0  0  0
  9 13  1  0  0  0
 10 38  1  0  0  0
 11 14  2  0  0  0
 11 15  1  0  0  0
 12 16  2  0  0  0
 13 17  2  0  0  0
 13 39  1  0  0  0
 14 18  1  0  0  0
 14 40  1  0  0  0
 15 19  2  0  0  0
 15 41  1  0  0  0
 16 17  1  0  0  0
 17 20  1  0  0  0
 18 21  2  0  0  0
 18 42  1  0  0  0
 19 21  1  0  0  0
 19 43  1  0  0  0
 20 22  2  0  0  0
 20 23  1  0  0  0
 21 24  1  0  0  0
 22 25  1  0  0  0
 22 44  1  0  0  0
 23 26  2  0  0  0
 23 45  1  0  0  0
 24 27  1  0  0  0
 24 28  1  0  0  0
 24 46  1  0  0  0
 25 29  2  0  0  0
 25 47  1  0  0  0
 26 29  1  0  0  0
 26 48  1  0  0  0
 27 30  1  0  0  0
 27 49  1  0  0  0
 27 50  1  0  0  0
 28 31  1  0  0  0
 28 51  1  0  0  0
 28 52  1  0  0  0
 29 32  1  0  0  0
 30 33  1  0  0  0
 30 53  1  0  0  0
 30 54  1  0  0  0
 31 33  1  0  0  0
 31 55  1  0  0  0
 31 56  1  0  0  0
 32 34  1  0  0  0
 32 35  1  0  0  0
 32 57  1  0  0  0
 33 58  1  0  0  0
 33 65  1  0  0  0
 34 59  1  0  0  0
 34 60  1  0  0  0
 34 61  1  0  0  0
 35 62  1  0  0  0
 35 63  1  0  0  0
 35 64  1  0  0  0
M  CHG  2   3  -1  33   1
M  END
> <i_epik_Tot_Q>
0

> <i_epik_Tot_abs_Q>
2

> <i_lp_mmshare_version>
62121

> <i_m_Source_File_Index>
9

> <i_phase_Input_Structure_Number>
9

> <i_phase_Reference_Structure>
41

> <i_phase_Structure_Number>
9

> <Molecule Name>
10

> <Rotatable Bonds>
6

> <i_f3d_flags>
0

> <b_lp_Chiralities_Consistent>
1

> <r_canvas_IC50_human_P2Y14R,_nM>
481

> <r_canvas_pIC50>
6.31785492362617

> <r_epik_Charging_Adjusted_Penalty>
0.00131429387641412

> <r_epik_Ionization_Penalty>
  0.0008

> <r_epik_Ionization_Penalty_Charging>
  0.0008

> <r_epik_Ionization_Penalty_Neutral>
  0.0000

> <r_epik_State_Penalty>
  0.0006

> <r_lp_Energy>
58.354123

> <r_lp_tautomer_probability>
1

> <r_phase_Similarity_to_Reference>
0.906931819261438

> <s_canvas_CHEMBLID>
CID 164585425

> <s_canvas_Compound>
78

> <s_canvas_Paper>
Junker2016

> <s_epik_cmdline>
J2VwaWtfcHl0aG9uJywgJy1waCcsICc3LjAnLCAnLXRuJywgJzgnLCAnLW1hJywgJzUwMCcsICctaW1hZScsICc8aW5maWxlLm1hZT4nLCAnLW9tYWUnLCAnPG91dGZpbGUubWFlPic=

> <s_epik_input>
W2NIXTFbY0hdYyhbQ0hdKFtDSDNdKVtDSDNdKVtjSF1bY0hdYzEtYyhbY0hdMilubm4yLWMoW2NIXWMzQyg9TylbT0hdKVtjSF1jKFtjSF0zKS1jNFtjSF1bY0hdYyhbY0hdW2NIXTQpW0NIXTVbQ0gyXVtDSDJdW05IXVtDSDJdW0NIMl01

> <s_lp_Force_Field>
S-OPLS

> <s_lp_Variant>
10-1

> <s_m_Source_File>
database-aligned.sdf

> <s_m_Source_Path>
/data/matteo/P2Y14-antagonists-piperidineDerivatives-Wen2023/14052024-optimized-alignment

> <s_m_entry_id>
9

> <s_m_entry_name>
database-aligned.9

> <s_m_job_name>
align_ligands_1

> <s_phase_Alignment_Method>
snapped core

> <s_phase_Alignment_Reason>


> <s_phase_Core_SMARTS>
a1aaaaa1-a2aa(aa2)-a3aaaa(a3)-a4aaa(aa4)A5AA[A]AA5

$$$$
11
                    3D
 Schrodinger Suite 2023-2.
 68 72  0  0  1  0            999 V2000
    7.7329    3.1460    1.9172 O   0  0  0  0  0  0
    6.4824    3.1926    1.9177 C   0  0  0  0  0  0
    5.8483    4.1301    2.4513 O   0  5  0  0  0  0
    5.7140    2.0823    1.2549 C   0  0  0  0  0  0
    4.3095    2.0826    1.2307 C   0  0  0  0  0  0
    6.3738    1.0063    0.6388 C   0  0  0  0  0  0
    3.5729    1.0430    0.6162 C   0  0  0  0  0  0
    5.6959   -0.0428    0.0147 C   0  0  0  0  0  0
    2.1133    1.0787    0.6116 N   0  0  0  0  0  0
    4.2688   -0.0378   -0.0014 C   0  0  0  0  0  0
    6.4845   -1.1328   -0.6109 C   0  0  0  0  0  0
    1.4087    2.1505    0.2272 N   0  0  0  0  0  0
    1.2788    0.0570    0.9868 C   0  0  0  0  0  0
    6.8196   -1.0713   -1.9653 C   0  0  0  0  0  0
    6.8885   -2.2318    0.1496 C   0  0  0  0  0  0
    0.0745    1.8131    0.3572 N   0  0  0  0  0  0
    0.0041    0.5726    0.8072 C   0  0  0  0  0  0
    7.5469   -2.1010   -2.5562 C   0  0  0  0  0  0
    7.6134   -3.2639   -0.4389 C   0  0  0  0  0  0
   -1.2977   -0.1255    1.0677 C   0  0  0  0  0  0
    7.9469   -3.2050   -1.7964 C   0  0  0  0  0  0
   -1.3030   -1.4321    1.5414 C   0  0  0  0  0  0
   -2.4987    0.5343    0.8355 C   0  0  0  0  0  0
    8.7323   -4.3448   -2.4511 C   0  0  0  0  0  0
   -2.5092   -2.0790    1.7828 C   0  0  0  0  0  0
   -3.7049   -0.1126    1.0769 C   0  0  0  0  0  0
   10.1198   -4.5548   -1.7988 C   0  0  0  0  0  0
    7.9157   -5.6578   -2.4890 C   0  0  0  0  0  0
   -3.7102   -1.4192    1.5505 C   0  0  0  0  0  0
   10.9018   -5.7110   -2.4500 C   0  0  0  0  0  0
    8.6977   -6.8138   -3.1399 C   0  0  0  0  0  0
   -5.0704   -2.1041    1.8065 C   0  0  0  0  0  0
   10.0472   -6.9906   -2.4217 N   0  3  0  0  0  0
   -5.8663   -1.3038    2.8595 C   0  0  0  0  0  0
   -4.9380   -3.5532    2.3310 C   0  0  0  0  0  0
   -5.8798   -2.1615    0.4934 C   0  0  0  0  0  0
    3.7663    2.8932    1.6949 H   0  0  0  0  0  0
    7.4543    0.9797    0.6403 H   0  0  0  0  0  0
    3.7251   -0.8398   -0.4790 H   0  0  0  0  0  0
    1.6394   -0.9001    1.3330 H   0  0  0  0  0  0
    6.5110   -0.2237   -2.5600 H   0  0  0  0  0  0
    6.6330   -2.2864    1.1979 H   0  0  0  0  0  0
    7.7941   -2.0392   -3.6059 H   0  0  0  0  0  0
    7.9104   -4.1100    0.1628 H   0  0  0  0  0  0
   -0.3799   -1.9600    1.7276 H   0  0  0  0  0  0
   -2.5152    1.5497    0.4677 H   0  0  0  0  0  0
    8.9139   -4.0563   -3.4878 H   0  0  0  0  0  0
   -2.4677   -3.0921    2.1499 H   0  0  0  0  0  0
   -4.6273    0.4165    0.8904 H   0  0  0  0  0  0
   10.7037   -3.6359   -1.8648 H   0  0  0  0  0  0
   10.0034   -4.7679   -0.7357 H   0  0  0  0  0  0
    7.6366   -5.9485   -1.4755 H   0  0  0  0  0  0
    6.9821   -5.4988   -3.0302 H   0  0  0  0  0  0
   11.1524   -5.4692   -3.4836 H   0  0  0  0  0  0
   11.8386   -5.8881   -1.9211 H   0  0  0  0  0  0
    8.1306   -7.7431   -3.0814 H   0  0  0  0  0  0
    8.8769   -6.6079   -4.1959 H   0  0  0  0  0  0
   10.5605   -7.7387   -2.8658 H   0  0  0  0  0  0
   -6.8231   -1.7789    3.0790 H   0  0  0  0  0  0
   -6.0850   -0.2887    2.5282 H   0  0  0  0  0  0
   -5.3145   -1.2310    3.7974 H   0  0  0  0  0  0
   -4.4050   -3.5918    3.2817 H   0  0  0  0  0  0
   -4.4145   -4.1939    1.6205 H   0  0  0  0  0  0
   -5.9173   -4.0028    2.4995 H   0  0  0  0  0  0
   -6.8371   -2.6633    0.6390 H   0  0  0  0  0  0
   -5.3378   -2.7084   -0.2789 H   0  0  0  0  0  0
   -6.0989   -1.1689    0.0995 H   0  0  0  0  0  0
    9.8712   -7.2410   -1.4591 H   0  0  0  0  0  0
  1  2  2  0  0  0
  2  3  1  0  0  0
  2  4  1  0  0  0
  4  5  2  0  0  0
  4  6  1  0  0  0
  5  7  1  0  0  0
  5 37  1  0  0  0
  6  8  2  0  0  0
  6 38  1  0  0  0
  7  9  1  0  0  0
  7 10  2  0  0  0
  8 11  1  0  0  0
  8 10  1  0  0  0
  9 12  1  0  0  0
  9 13  1  0  0  0
 10 39  1  0  0  0
 11 14  2  0  0  0
 11 15  1  0  0  0
 12 16  2  0  0  0
 13 17  2  0  0  0
 13 40  1  0  0  0
 14 18  1  0  0  0
 14 41  1  0  0  0
 15 19  2  0  0  0
 15 42  1  0  0  0
 16 17  1  0  0  0
 17 20  1  0  0  0
 18 21  2  0  0  0
 18 43  1  0  0  0
 19 21  1  0  0  0
 19 44  1  0  0  0
 20 22  2  0  0  0
 20 23  1  0  0  0
 21 24  1  0  0  0
 22 25  1  0  0  0
 22 45  1  0  0  0
 23 26  2  0  0  0
 23 46  1  0  0  0
 24 27  1  0  0  0
 24 28  1  0  0  0
 24 47  1  0  0  0
 25 29  2  0  0  0
 25 48  1  0  0  0
 26 29  1  0  0  0
 26 49  1  0  0  0
 27 30  1  0  0  0
 27 50  1  0  0  0
 27 51  1  0  0  0
 28 31  1  0  0  0
 28 52  1  0  0  0
 28 53  1  0  0  0
 29 32  1  0  0  0
 30 33  1  0  0  0
 30 54  1  0  0  0
 30 55  1  0  0  0
 31 33  1  0  0  0
 31 56  1  0  0  0
 31 57  1  0  0  0
 32 34  1  0  0  0
 32 35  1  0  0  0
 32 36  1  0  0  0
 33 58  1  0  0  0
 33 68  1  0  0  0
 34 59  1  0  0  0
 34 60  1  0  0  0
 34 61  1  0  0  0
 35 62  1  0  0  0
 35 63  1  0  0  0
 35 64  1  0  0  0
 36 65  1  0  0  0
 36 66  1  0  0  0
 36 67  1  0  0  0
M  CHG  2   3  -1  33   1
M  END
> <i_epik_Tot_Q>
0

> <i_epik_Tot_abs_Q>
2

> <i_lp_mmshare_version>
62121

> <i_m_Source_File_Index>
10

> <i_phase_Input_Structure_Number>
10

> <i_phase_Reference_Structure>
41

> <i_phase_Structure_Number>
10

> <Molecule Name>
11

> <Rotatable Bonds>
6

> <i_f3d_flags>
0

> <b_lp_Chiralities_Consistent>
1

> <r_canvas_IC50_human_P2Y14R,_nM>
224

> <r_canvas_pIC50>
6.64975198166584

> <r_epik_Charging_Adjusted_Penalty>
0.00131429387641412

> <r_epik_Ionization_Penalty>
  0.0008

> <r_epik_Ionization_Penalty_Charging>
  0.0008

> <r_epik_Ionization_Penalty_Neutral>
  0.0000

> <r_epik_State_Penalty>
  0.0006

> <r_lp_Energy>
60.40425

> <r_lp_tautomer_probability>
1

> <r_phase_Similarity_to_Reference>
0.876895274021826

> <s_canvas_CHEMBLID>
CID 164585343

> <s_canvas_Compound>
79

> <s_canvas_Paper>
Junker2016

> <s_epik_cmdline>
J2VwaWtfcHl0aG9uJywgJy1waCcsICc3LjAnLCAnLXRuJywgJzgnLCAnLW1hJywgJzUwMCcsICctaW1hZScsICc8aW5maWxlLm1hZT4nLCAnLW9tYWUnLCAnPG91dGZpbGUubWFlPic=

> <s_epik_input>
W2NIXTFbY0hdYyhDKFtDSDNdKShbQ0gzXSlbQ0gzXSlbY0hdW2NIXWMxLWMoW2NIXTIpbm5uMi1jKFtjSF1jM0MoPU8pW09IXSlbY0hdYyhbY0hdMyktYzRbY0hdW2NIXWMoW2NIXVtjSF00KVtDSF01W0NIMl1bQ0gyXVtOSF1bQ0gyXVtDSDJdNQ==

> <s_lp_Force_Field>
S-OPLS

> <s_lp_Variant>
11-1

> <s_m_Source_File>
database-aligned.sdf

> <s_m_Source_Path>
/data/matteo/P2Y14-antagonists-piperidineDerivatives-Wen2023/14052024-optimized-alignment

> <s_m_entry_id>
10

> <s_m_entry_name>
database-aligned.10

> <s_m_job_name>
align_ligands_1

> <s_phase_Alignment_Method>
snapped core

> <s_phase_Alignment_Reason>


> <s_phase_Core_SMARTS>
a1aaaaa1-a2aa(aa2)-a3aaaa(a3)-a4aaa(aa4)A5AA[A]AA5

$$$$
12
                    3D
 Schrodinger Suite 2023-2.
 72 76  0  0  1  0            999 V2000
    7.7329    3.1460    1.9172 O   0  0  0  0  0  0
    6.4824    3.1926    1.9177 C   0  0  0  0  0  0
    5.8483    4.1301    2.4513 O   0  5  0  0  0  0
    5.7140    2.0823    1.2549 C   0  0  0  0  0  0
    4.3095    2.0826    1.2307 C   0  0  0  0  0  0
    6.3738    1.0063    0.6388 C   0  0  0  0  0  0
    3.5729    1.0430    0.6162 C   0  0  0  0  0  0
    5.6959   -0.0428    0.0147 C   0  0  0  0  0  0
    2.1133    1.0787    0.6116 N   0  0  0  0  0  0
    4.2688   -0.0378   -0.0014 C   0  0  0  0  0  0
    6.4845   -1.1328   -0.6109 C   0  0  0  0  0  0
    1.4087    2.1505    0.2272 N   0  0  0  0  0  0
    1.2788    0.0570    0.9868 C   0  0  0  0  0  0
    6.8196   -1.0713   -1.9653 C   0  0  0  0  0  0
    6.8885   -2.2318    0.1496 C   0  0  0  0  0  0
    0.0745    1.8131    0.3572 N   0  0  0  0  0  0
    0.0041    0.5726    0.8072 C   0  0  0  0  0  0
    7.5469   -2.1010   -2.5562 C   0  0  0  0  0  0
    7.6134   -3.2639   -0.4389 C   0  0  0  0  0  0
   -1.2977   -0.1255    1.0677 C   0  0  0  0  0  0
    7.9469   -3.2050   -1.7964 C   0  0  0  0  0  0
   -2.4987    0.5343    0.8355 C   0  0  0  0  0  0
   -1.3030   -1.4321    1.5414 C   0  0  0  0  0  0
    8.7323   -4.3448   -2.4511 C   0  0  0  0  0  0
   -3.7049   -0.1126    1.0769 C   0  0  0  0  0  0
   -2.5092   -2.0790    1.7828 C   0  0  0  0  0  0
    7.9157   -5.6578   -2.4890 C   0  0  0  0  0  0
   10.1198   -4.5548   -1.7988 C   0  0  0  0  0  0
   -3.7102   -1.4192    1.5505 C   0  0  0  0  0  0
    8.6977   -6.8138   -3.1399 C   0  0  0  0  0  0
   10.9018   -5.7110   -2.4500 C   0  0  0  0  0  0
   -4.9524   -1.9817    1.7520 O   0  0  0  0  0  0
   10.0472   -6.9906   -2.4217 N   0  3  0  0  0  0
   -5.0356   -3.2774    2.3284 C   0  0  0  0  0  0
   -6.5125   -3.6689    2.4960 C   0  0  0  0  0  0
   -7.2525   -2.9326    3.6291 C   0  0  0  0  0  0
   -7.5300   -1.4457    3.3487 C   0  0  0  0  0  0
   -8.3979   -0.7939    4.4307 C   0  0  0  0  0  0
    3.7660    2.8932    1.6946 H   0  0  0  0  0  0
    7.4543    0.9793    0.6399 H   0  0  0  0  0  0
    3.7253   -0.8399   -0.4791 H   0  0  0  0  0  0
    1.6397   -0.9000    1.3331 H   0  0  0  0  0  0
    6.5111   -0.2238   -2.5601 H   0  0  0  0  0  0
    6.6331   -2.2866    1.1979 H   0  0  0  0  0  0
    7.7942   -2.0395   -3.6059 H   0  0  0  0  0  0
    7.9106   -4.1101    0.1625 H   0  0  0  0  0  0
   -2.5158    1.5494    0.4669 H   0  0  0  0  0  0
   -0.3799   -1.9605    1.7261 H   0  0  0  0  0  0
    8.9139   -4.0563   -3.4877 H   0  0  0  0  0  0
   -4.6372    0.4017    0.8946 H   0  0  0  0  0  0
   -2.4789   -3.0944    2.1476 H   0  0  0  0  0  0
    7.6363   -5.9484   -1.4756 H   0  0  0  0  0  0
    6.9823   -5.4987   -3.0303 H   0  0  0  0  0  0
   10.7036   -3.6359   -1.8650 H   0  0  0  0  0  0
   10.0035   -4.7676   -0.7356 H   0  0  0  0  0  0
    8.1305   -7.7430   -3.0812 H   0  0  0  0  0  0
    8.8767   -6.6080   -4.1959 H   0  0  0  0  0  0
   11.1526   -5.4691   -3.4834 H   0  0  0  0  0  0
   11.8384   -5.8879   -1.9210 H   0  0  0  0  0  0
    9.8713   -7.2413   -1.4591 H   0  0  0  0  0  0
   -4.5504   -3.9979    1.6682 H   0  0  0  0  0  0
   -4.5277   -3.3092    3.2937 H   0  0  0  0  0  0
   -7.0431   -3.5374    1.5524 H   0  0  0  0  0  0
   -6.5523   -4.7370    2.7123 H   0  0  0  0  0  0
   -8.2062   -3.4366    3.7918 H   0  0  0  0  0  0
   -6.6971   -3.0372    4.5617 H   0  0  0  0  0  0
   -6.5923   -0.8952    3.2817 H   0  0  0  0  0  0
   -8.0228   -1.3402    2.3818 H   0  0  0  0  0  0
   -8.5625    0.2614    4.2118 H   0  0  0  0  0  0
   -7.9218   -0.8599    5.4095 H   0  0  0  0  0  0
   -9.3734   -1.2757    4.4977 H   0  0  0  0  0  0
   10.5605   -7.7390   -2.8655 H   0  0  0  0  0  0
  1  2  2  0  0  0
  2  3  1  0  0  0
  2  4  1  0  0  0
  4  5  2  0  0  0
  4  6  1  0  0  0
  5  7  1  0  0  0
  5 39  1  0  0  0
  6  8  2  0  0  0
  6 40  1  0  0  0
  7  9  1  0  0  0
  7 10  2  0  0  0
  8 11  1  0  0  0
  8 10  1  0  0  0
  9 12  1  0  0  0
  9 13  1  0  0  0
 10 41  1  0  0  0
 11 14  2  0  0  0
 11 15  1  0  0  0
 12 16  2  0  0  0
 13 17  2  0  0  0
 13 42  1  0  0  0
 14 18  1  0  0  0
 14 43  1  0  0  0
 15 19  2  0  0  0
 15 44  1  0  0  0
 16 17  1  0  0  0
 17 20  1  0  0  0
 18 21  2  0  0  0
 18 45  1  0  0  0
 19 21  1  0  0  0
 19 46  1  0  0  0
 20 22  2  0  0  0
 20 23  1  0  0  0
 21 24  1  0  0  0
 22 25  1  0  0  0
 22 47  1  0  0  0
 23 26  2  0  0  0
 23 48  1  0  0  0
 24 27  1  0  0  0
 24 28  1  0  0  0
 24 49  1  0  0  0
 25 29  2  0  0  0
 25 50  1  0  0  0
 26 29  1  0  0  0
 26 51  1  0  0  0
 27 30  1  0  0  0
 27 52  1  0  0  0
 27 53  1  0  0  0
 28 31  1  0  0  0
 28 54  1  0  0  0
 28 55  1  0  0  0
 29 32  1  0  0  0
 30 33  1  0  0  0
 30 56  1  0  0  0
 30 57  1  0  0  0
 31 33  1  0  0  0
 31 58  1  0  0  0
 31 59  1  0  0  0
 32 34  1  0  0  0
 33 60  1  0  0  0
 33 72  1  0  0  0
 34 35  1  0  0  0
 34 61  1  0  0  0
 34 62  1  0  0  0
 35 36  1  0  0  0
 35 63  1  0  0  0
 35 64  1  0  0  0
 36 37  1  0  0  0
 36 65  1  0  0  0
 36 66  1  0  0  0
 37 38  1  0  0  0
 37 67  1  0  0  0
 37 68  1  0  0  0
 38 69  1  0  0  0
 38 70  1  0  0  0
 38 71  1  0  0  0
M  CHG  2   3  -1  33   1
M  END
> <i_epik_Tot_Q>
0

> <i_epik_Tot_abs_Q>
2

> <i_lp_mmshare_version>
62121

> <i_m_Source_File_Index>
11

> <i_phase_Input_Structure_Number>
11

> <i_phase_Reference_Structure>
41

> <i_phase_Structure_Number>
11

> <Molecule Name>
12

> <Rotatable Bonds>
10

> <i_f3d_flags>
0

> <b_lp_Chiralities_Consistent>
1

> <r_canvas_IC50_human_P2Y14R,_nM>
162

> <r_canvas_pIC50>
6.79048498545737

> <r_epik_Charging_Adjusted_Penalty>
0.00131429387641412

> <r_epik_Ionization_Penalty>
  0.0008

> <r_epik_Ionization_Penalty_Charging>
  0.0008

> <r_epik_Ionization_Penalty_Neutral>
  0.0000

> <r_epik_State_Penalty>
  0.0006

> <r_lp_Energy>
60.788414

> <r_lp_tautomer_probability>
1

> <r_phase_Similarity_to_Reference>
0.838314946282018

> <s_canvas_CHEMBLID>
CID 139406891

> <s_canvas_Compound>
82

> <s_canvas_Paper>
Junker2016

> <s_epik_cmdline>
J2VwaWtfcHl0aG9uJywgJy1waCcsICc3LjAnLCAnLXRuJywgJzgnLCAnLW1hJywgJzUwMCcsICctaW1hZScsICc8aW5maWxlLm1hZT4nLCAnLW9tYWUnLCAnPG91dGZpbGUubWFlPic=

> <s_epik_input>
W0NIMl0xW0NIMl1bTkhdW0NIMl1bQ0gyXVtDSF0xYyhbY0hdW2NIXTIpW2NIXVtjSF1jMi1jKFtjSF0zKVtjSF1jKFtjSF1jM0MoPU8pW09IXSktbjRubmMoW2NIXTQpLWM1W2NIXVtjSF1jKFtjSF1bY0hdNSlPW0NIMl1bQ0gyXVtDSDJdW0NIMl1bQ0gzXQ==

> <s_lp_Force_Field>
S-OPLS

> <s_lp_Variant>
12-1

> <s_m_Source_File>
database-aligned.sdf

> <s_m_Source_Path>
/data/matteo/P2Y14-antagonists-piperidineDerivatives-Wen2023/14052024-optimized-alignment

> <s_m_entry_id>
11

> <s_m_entry_name>
database-aligned.11

> <s_m_job_name>
align_ligands_1

> <s_phase_Alignment_Method>
snapped core

> <s_phase_Alignment_Reason>


> <s_phase_Core_SMARTS>
a1aaaaa1-a2aa(aa2)-a3aaaa(a3)-a4aaa(aa4)A5AA[A]AA5

$$$$
13
                    3D
 Schrodinger Suite 2023-2.
 60 64  0  0  1  0            999 V2000
   -6.4119   -3.5489    2.3377 F   0  0  0  0  0  0
   -5.0946   -3.2528    2.2229 C   0  0  0  0  0  0
   -4.5475   -3.4071    3.4551 F   0  0  0  0  0  0
   -4.5593   -4.1627    1.3704 F   0  0  0  0  0  0
   -4.9553   -1.9798    1.7608 O   0  0  0  0  0  0
   -3.7102   -1.4192    1.5505 C   0  0  0  0  0  0
   -2.5092   -2.0790    1.7828 C   0  0  0  0  0  0
   -3.7049   -0.1126    1.0769 C   0  0  0  0  0  0
   -1.3030   -1.4321    1.5414 C   0  0  0  0  0  0
   -2.4987    0.5343    0.8355 C   0  0  0  0  0  0
   -1.2977   -0.1255    1.0677 C   0  0  0  0  0  0
    0.0041    0.5726    0.8072 C   0  0  0  0  0  0
    0.0745    1.8131    0.3572 N   0  0  0  0  0  0
    1.2788    0.0570    0.9868 C   0  0  0  0  0  0
    1.4087    2.1505    0.2272 N   0  0  0  0  0  0
    2.1133    1.0787    0.6116 N   0  0  0  0  0  0
    3.5729    1.0430    0.6162 C   0  0  0  0  0  0
    4.2688   -0.0378   -0.0014 C   0  0  0  0  0  0
    4.3095    2.0826    1.2307 C   0  0  0  0  0  0
    5.6959   -0.0428    0.0147 C   0  0  0  0  0  0
    5.7140    2.0823    1.2549 C   0  0  0  0  0  0
    6.4845   -1.1328   -0.6109 C   0  0  0  0  0  0
    6.3738    1.0063    0.6388 C   0  0  0  0  0  0
    6.4824    3.1926    1.9177 C   0  0  0  0  0  0
    6.8196   -1.0713   -1.9653 C   0  0  0  0  0  0
    6.8885   -2.2318    0.1496 C   0  0  0  0  0  0
    7.7329    3.1460    1.9172 O   0  0  0  0  0  0
    5.8483    4.1301    2.4513 O   0  5  0  0  0  0
    7.5469   -2.1010   -2.5562 C   0  0  0  0  0  0
    7.6134   -3.2639   -0.4389 C   0  0  0  0  0  0
    7.9469   -3.2050   -1.7964 C   0  0  0  0  0  0
    8.7323   -4.3448   -2.4511 C   0  0  0  0  0  0
   10.1198   -4.5548   -1.7988 C   0  0  0  0  0  0
    7.9157   -5.6578   -2.4890 C   0  0  0  0  0  0
   10.9018   -5.7110   -2.4500 C   0  0  0  0  0  0
    8.6977   -6.8138   -3.1399 C   0  0  0  0  0  0
   10.0472   -6.9906   -2.4217 N   0  3  0  0  0  0
   -2.4764   -3.0929    2.1502 H   0  0  0  0  0  0
   -4.6368    0.4028    0.8955 H   0  0  0  0  0  0
   -0.3799   -1.9600    1.7275 H   0  0  0  0  0  0
   -2.5156    1.5497    0.4677 H   0  0  0  0  0  0
    1.6400   -0.8999    1.3329 H   0  0  0  0  0  0
    3.7254   -0.8399   -0.4791 H   0  0  0  0  0  0
    3.7661    2.8933    1.6947 H   0  0  0  0  0  0
    7.4543    0.9794    0.6399 H   0  0  0  0  0  0
    6.5112   -0.2238   -2.5603 H   0  0  0  0  0  0
    6.6332   -2.2868    1.1980 H   0  0  0  0  0  0
    7.7944   -2.0398   -3.6058 H   0  0  0  0  0  0
    7.9107   -4.1103    0.1622 H   0  0  0  0  0  0
    8.9142   -4.0568   -3.4878 H   0  0  0  0  0  0
   10.7038   -3.6361   -1.8646 H   0  0  0  0  0  0
   10.0038   -4.7680   -0.7357 H   0  0  0  0  0  0
    7.6365   -5.9489   -1.4756 H   0  0  0  0  0  0
    6.9821   -5.4991   -3.0300 H   0  0  0  0  0  0
   11.1526   -5.4694   -3.4835 H   0  0  0  0  0  0
   11.8384   -5.8882   -1.9211 H   0  0  0  0  0  0
    8.1308   -7.7431   -3.0812 H   0  0  0  0  0  0
    8.8769   -6.6082   -4.1959 H   0  0  0  0  0  0
   10.5605   -7.7390   -2.8653 H   0  0  0  0  0  0
    9.8714   -7.2414   -1.4592 H   0  0  0  0  0  0
  1  2  1  0  0  0
  2  3  1  0  0  0
  2  4  1  0  0  0
  2  5  1  0  0  0
  5  6  1  0  0  0
  6  7  2  0  0  0
  6  8  1  0  0  0
  7  9  1  0  0  0
  7 38  1  0  0  0
  8 10  2  0  0  0
  8 39  1  0  0  0
  9 11  2  0  0  0
  9 40  1  0  0  0
 10 11  1  0  0  0
 10 41  1  0  0  0
 11 12  1  0  0  0
 12 13  1  0  0  0
 12 14  2  0  0  0
 13 15  2  0  0  0
 14 16  1  0  0  0
 14 42  1  0  0  0
 15 16  1  0  0  0
 16 17  1  0  0  0
 17 18  2  0  0  0
 17 19  1  0  0  0
 18 20  1  0  0  0
 18 43  1  0  0  0
 19 21  2  0  0  0
 19 44  1  0  0  0
 20 22  1  0  0  0
 20 23  2  0  0  0
 21 24  1  0  0  0
 21 23  1  0  0  0
 22 25  2  0  0  0
 22 26  1  0  0  0
 23 45  1  0  0  0
 24 27  2  0  0  0
 24 28  1  0  0  0
 25 29  1  0  0  0
 25 46  1  0  0  0
 26 30  2  0  0  0
 26 47  1  0  0  0
 29 31  2  0  0  0
 29 48  1  0  0  0
 30 31  1  0  0  0
 30 49  1  0  0  0
 31 32  1  0  0  0
 32 33  1  0  0  0
 32 34  1  0  0  0
 32 50  1  0  0  0
 33 35  1  0  0  0
 33 51  1  0  0  0
 33 52  1  0  0  0
 34 36  1  0  0  0
 34 53  1  0  0  0
 34 54  1  0  0  0
 35 37  1  0  0  0
 35 55  1  0  0  0
 35 56  1  0  0  0
 36 37  1  0  0  0
 36 57  1  0  0  0
 36 58  1  0  0  0
 37 59  1  0  0  0
 37 60  1  0  0  0
M  CHG  2  28  -1  37   1
M  END
> <i_epik_Tot_Q>
0

> <i_epik_Tot_abs_Q>
2

> <i_lp_mmshare_version>
62121

> <i_m_Source_File_Index>
12

> <i_phase_Input_Structure_Number>
12

> <i_phase_Reference_Structure>
41

> <i_phase_Structure_Number>
12

> <Molecule Name>
13

> <Rotatable Bonds>
7

> <i_f3d_flags>
0

> <b_lp_Chiralities_Consistent>
1

> <r_canvas_IC50_human_P2Y14R,_nM>
131

> <r_canvas_pIC50>
6.88272870434424

> <r_epik_Charging_Adjusted_Penalty>
0.00131429387641412

> <r_epik_Ionization_Penalty>
  0.0008

> <r_epik_Ionization_Penalty_Charging>
  0.0008

> <r_epik_Ionization_Penalty_Neutral>
  0.0000

> <r_epik_State_Penalty>
  0.0006

> <r_lp_Energy>
56.135941

> <r_lp_tautomer_probability>
1

> <r_phase_Similarity_to_Reference>
0.905679243448916

> <s_canvas_CHEMBLID>
CID 139406884

> <s_canvas_Compound>
84

> <s_canvas_Paper>
Junker2016

> <s_epik_cmdline>
J2VwaWtfcHl0aG9uJywgJy1waCcsICc3LjAnLCAnLXRuJywgJzgnLCAnLW1hJywgJzUwMCcsICctaW1hZScsICc8aW5maWxlLm1hZT4nLCAnLW9tYWUnLCAnPG91dGZpbGUubWFlPic=

> <s_epik_input>
RkMoRikoRilPYzFbY0hdW2NIXWMoW2NIXVtjSF0xKS1jMm5ubihbY0hdMiktYzNbY0hdYyhbY0hdYyhbY0hdMylDKD1PKVtPSF0pLWM0W2NIXVtjSF1jKFtjSF1bY0hdNClbQ0hdNVtDSDJdW0NIMl1bTkhdW0NIMl1bQ0gyXTU=

> <s_lp_Force_Field>
S-OPLS

> <s_lp_Variant>
13-1

> <s_m_Source_File>
database-aligned.sdf

> <s_m_Source_Path>
/data/matteo/P2Y14-antagonists-piperidineDerivatives-Wen2023/14052024-optimized-alignment

> <s_m_entry_id>
12

> <s_m_entry_name>
database-aligned.12

> <s_m_job_name>
align_ligands_1

> <s_phase_Alignment_Method>
snapped core

> <s_phase_Alignment_Reason>


> <s_phase_Core_SMARTS>
a1aaaaa1-a2aa(aa2)-a3aaaa(a3)-a4aaa(aa4)A5AA[A]AA5

$$$$
14
                    3D
 Schrodinger Suite 2023-2.
 56 60  0  0  1  0            999 V2000
   -4.8742    0.5319    0.8500 F   0  0  0  0  0  0
   -3.7049   -0.1126    1.0769 C   0  0  0  0  0  0
   -3.7102   -1.4192    1.5505 C   0  0  0  0  0  0
   -2.4987    0.5343    0.8355 C   0  0  0  0  0  0
   -4.8844   -2.0514    1.7864 F   0  0  0  0  0  0
   -2.5092   -2.0790    1.7828 C   0  0  0  0  0  0
   -1.2977   -0.1255    1.0677 C   0  0  0  0  0  0
   -1.3030   -1.4321    1.5414 C   0  0  0  0  0  0
    0.0041    0.5726    0.8072 C   0  0  0  0  0  0
    0.0745    1.8131    0.3572 N   0  0  0  0  0  0
    1.2788    0.0570    0.9868 C   0  0  0  0  0  0
    1.4087    2.1505    0.2272 N   0  0  0  0  0  0
    2.1133    1.0787    0.6116 N   0  0  0  0  0  0
    3.5729    1.0430    0.6162 C   0  0  0  0  0  0
    4.2688   -0.0378   -0.0014 C   0  0  0  0  0  0
    4.3095    2.0826    1.2307 C   0  0  0  0  0  0
    5.6959   -0.0428    0.0147 C   0  0  0  0  0  0
    5.7140    2.0823    1.2549 C   0  0  0  0  0  0
    6.4845   -1.1328   -0.6109 C   0  0  0  0  0  0
    6.3738    1.0063    0.6388 C   0  0  0  0  0  0
    6.4824    3.1926    1.9177 C   0  0  0  0  0  0
    6.8196   -1.0713   -1.9653 C   0  0  0  0  0  0
    6.8885   -2.2318    0.1496 C   0  0  0  0  0  0
    7.7329    3.1460    1.9172 O   0  0  0  0  0  0
    5.8483    4.1301    2.4513 O   0  5  0  0  0  0
    7.5469   -2.1010   -2.5562 C   0  0  0  0  0  0
    7.6134   -3.2639   -0.4389 C   0  0  0  0  0  0
    7.9469   -3.2050   -1.7964 C   0  0  0  0  0  0
    8.7323   -4.3448   -2.4511 C   0  0  0  0  0  0
    7.9157   -5.6578   -2.4890 C   0  0  0  0  0  0
   10.1198   -4.5548   -1.7988 C   0  0  0  0  0  0
    8.6977   -6.8138   -3.1399 C   0  0  0  0  0  0
   10.9018   -5.7110   -2.4500 C   0  0  0  0  0  0
   10.0472   -6.9906   -2.4217 N   0  3  0  0  0  0
   -2.5148    1.5498    0.4678 H   0  0  0  0  0  0
   -2.5128   -3.0944    2.1509 H   0  0  0  0  0  0
   -0.3800   -1.9602    1.7274 H   0  0  0  0  0  0
    1.6399   -0.9001    1.3322 H   0  0  0  0  0  0
    3.7253   -0.8405   -0.4780 H   0  0  0  0  0  0
    3.7664    2.8935    1.6947 H   0  0  0  0  0  0
    7.4543    0.9802    0.6404 H   0  0  0  0  0  0
    6.5111   -0.2238   -2.5602 H   0  0  0  0  0  0
    6.6331   -2.2868    1.1979 H   0  0  0  0  0  0
    7.7944   -2.0397   -3.6058 H   0  0  0  0  0  0
    7.9106   -4.1103    0.1623 H   0  0  0  0  0  0
    8.9143   -4.0569   -3.4879 H   0  0  0  0  0  0
    7.6359   -5.9490   -1.4758 H   0  0  0  0  0  0
    6.9820   -5.4993   -3.0302 H   0  0  0  0  0  0
   10.7041   -3.6361   -1.8646 H   0  0  0  0  0  0
   10.0042   -4.7676   -0.7355 H   0  0  0  0  0  0
    8.1312   -7.7436   -3.0820 H   0  0  0  0  0  0
    8.8777   -6.6081   -4.1958 H   0  0  0  0  0  0
   11.1522   -5.4699   -3.4838 H   0  0  0  0  0  0
   11.8389   -5.8887   -1.9218 H   0  0  0  0  0  0
    9.8717   -7.2421   -1.4592 H   0  0  0  0  0  0
   10.5605   -7.7393   -2.8651 H   0  0  0  0  0  0
  1  2  1  0  0  0
  2  3  2  0  0  0
  2  4  1  0  0  0
  3  5  1  0  0  0
  3  6  1  0  0  0
  4  7  2  0  0  0
  4 35  1  0  0  0
  6  8  2  0  0  0
  6 36  1  0  0  0
  7  9  1  0  0  0
  7  8  1  0  0  0
  8 37  1  0  0  0
  9 10  1  0  0  0
  9 11  2  0  0  0
 10 12  2  0  0  0
 11 13  1  0  0  0
 11 38  1  0  0  0
 12 13  1  0  0  0
 13 14  1  0  0  0
 14 15  2  0  0  0
 14 16  1  0  0  0
 15 17  1  0  0  0
 15 39  1  0  0  0
 16 18  2  0  0  0
 16 40  1  0  0  0
 17 19  1  0  0  0
 17 20  2  0  0  0
 18 21  1  0  0  0
 18 20  1  0  0  0
 19 22  2  0  0  0
 19 23  1  0  0  0
 20 41  1  0  0  0
 21 24  2  0  0  0
 21 25  1  0  0  0
 22 26  1  0  0  0
 22 42  1  0  0  0
 23 27  2  0  0  0
 23 43  1  0  0  0
 26 28  2  0  0  0
 26 44  1  0  0  0
 27 28  1  0  0  0
 27 45  1  0  0  0
 28 29  1  0  0  0
 29 30  1  0  0  0
 29 31  1  0  0  0
 29 46  1  0  0  0
 30 32  1  0  0  0
 30 47  1  0  0  0
 30 48  1  0  0  0
 31 33  1  0  0  0
 31 49  1  0  0  0
 31 50  1  0  0  0
 32 34  1  0  0  0
 32 51  1  0  0  0
 32 52  1  0  0  0
 33 34  1  0  0  0
 33 53  1  0  0  0
 33 54  1  0  0  0
 34 55  1  0  0  0
 34 56  1  0  0  0
M  CHG  2  25  -1  34   1
M  END
> <i_epik_Tot_Q>
0

> <i_epik_Tot_abs_Q>
2

> <i_lp_mmshare_version>
62121

> <i_m_Source_File_Index>
13

> <i_phase_Input_Structure_Number>
13

> <i_phase_Reference_Structure>
41

> <i_phase_Structure_Number>
13

> <Molecule Name>
14

> <Rotatable Bonds>
5

> <i_f3d_flags>
0

> <b_lp_Chiralities_Consistent>
1

> <r_canvas_IC50_human_P2Y14R,_nM>
228

> <r_canvas_pIC50>
6.64206515299955

> <r_epik_Charging_Adjusted_Penalty>
0.00131429387641412

> <r_epik_Ionization_Penalty>
  0.0008

> <r_epik_Ionization_Penalty_Charging>
  0.0008

> <r_epik_Ionization_Penalty_Neutral>
  0.0000

> <r_epik_State_Penalty>
  0.0006

> <r_lp_Energy>
57.674598

> <r_lp_tautomer_probability>
1

> <r_phase_Similarity_to_Reference>
0.890504555297998

> <s_canvas_CHEMBLID>
CID 139406868

> <s_canvas_Compound>
90

> <s_canvas_Paper>
Junker2016

> <s_epik_cmdline>
J2VwaWtfcHl0aG9uJywgJy1waCcsICc3LjAnLCAnLXRuJywgJzgnLCAnLW1hJywgJzUwMCcsICctaW1hZScsICc8aW5maWxlLm1hZT4nLCAnLW9tYWUnLCAnPG91dGZpbGUubWFlPic=

> <s_epik_input>
RmMxYyhGKVtjSF1bY0hdYyhbY0hdMSktYzJubm4oW2NIXTIpLWMzW2NIXWMoW2NIXWMoW2NIXTMpQyg9TylbT0hdKS1jNFtjSF1bY0hdYyhbY0hdW2NIXTQpW0NIXTVbQ0gyXVtDSDJdW05IXVtDSDJdW0NIMl01

> <s_lp_Force_Field>
S-OPLS

> <s_lp_Variant>
14-1

> <s_m_Source_File>
database-aligned.sdf

> <s_m_Source_Path>
/data/matteo/P2Y14-antagonists-piperidineDerivatives-Wen2023/14052024-optimized-alignment

> <s_m_entry_id>
13

> <s_m_entry_name>
database-aligned.13

> <s_m_job_name>
align_ligands_1

> <s_phase_Alignment_Method>
snapped core

> <s_phase_Alignment_Reason>


> <s_phase_Core_SMARTS>
a1aaaaa1-a2aa(aa2)-a3aaaa(a3)-a4aaa(aa4)A5AA[A]AA5

$$$$
23
                    3D
 Schrodinger Suite 2023-2.
 54 57  0  0  1  0            999 V2000
    7.1191   -4.7557   -2.7146 S   0  0  0  0  0  0
    7.9631   -4.5740   -3.9007 O   0  0  0  0  0  0
    5.7298   -5.2147   -2.8211 O   0  0  0  0  0  0
    7.9509   -5.8397   -1.6372 N   0  0  2  0  0  0
    7.1114   -3.2180   -1.8180 C   0  0  0  0  0  0
    9.2969   -5.3352   -1.3818 C   0  0  0  0  0  0
    5.6070   -2.4639   -1.3983 S   0  0  0  0  0  0
    8.2076   -2.4874   -1.3774 C   0  0  0  0  0  0
   10.3052   -6.3493   -1.8345 C   0  0  0  0  0  0
    6.4579   -1.1633   -0.6286 C   0  0  0  0  0  0
    7.8363   -1.3199   -0.7015 C   0  0  0  0  0  0
   10.1406   -6.5945   -3.2643 N   0  3  0  0  0  0
    5.6959   -0.0428    0.0147 C   0  0  0  0  0  0
    4.2688   -0.0378   -0.0014 C   0  0  0  0  0  0
    6.3738    1.0063    0.6388 C   0  0  0  0  0  0
    3.5729    1.0430    0.6162 C   0  0  0  0  0  0
    5.7140    2.0823    1.2549 C   0  0  0  0  0  0
    2.1133    1.0787    0.6116 N   0  0  0  0  0  0
    4.3095    2.0826    1.2307 C   0  0  0  0  0  0
    6.4824    3.1926    1.9177 C   0  0  0  0  0  0
    1.4087    2.1505    0.2272 N   0  0  0  0  0  0
    1.2788    0.0570    0.9868 C   0  0  0  0  0  0
    7.7329    3.1460    1.9172 O   0  0  0  0  0  0
    5.8483    4.1301    2.4513 O   0  5  0  0  0  0
    0.0745    1.8131    0.3572 N   0  0  0  0  0  0
    0.0041    0.5726    0.8072 C   0  0  0  0  0  0
   -1.2977   -0.1255    1.0677 C   0  0  0  0  0  0
   -1.3030   -1.4321    1.5414 C   0  0  0  0  0  0
   -2.4987    0.5343    0.8355 C   0  0  0  0  0  0
   -2.5092   -2.0790    1.7828 C   0  0  0  0  0  0
   -3.7049   -0.1126    1.0769 C   0  0  0  0  0  0
   -3.7102   -1.4192    1.5505 C   0  0  0  0  0  0
   -5.0120   -2.1173    1.8111 C   0  0  0  0  0  0
   -4.8466   -3.4241    1.6134 F   0  0  0  0  0  0
   -5.9312   -1.6407    0.9732 F   0  0  0  0  0  0
   -5.3787   -1.8881    3.0709 F   0  0  0  0  0  0
    8.0085   -6.7557   -2.0588 H   0  0  0  0  0  0
    9.4462   -4.4048   -1.9296 H   0  0  0  0  0  0
    9.4198   -5.1521   -0.3143 H   0  0  0  0  0  0
    9.2349   -2.7872   -1.5385 H   0  0  0  0  0  0
   11.3102   -5.9726   -1.6438 H   0  0  0  0  0  0
   10.1559   -7.2797   -1.2867 H   0  0  0  0  0  0
    8.5448   -0.6173   -0.2824 H   0  0  0  0  0  0
   10.8196   -7.2773   -3.5691 H   0  0  0  0  0  0
   10.2790   -5.7324   -3.7719 H   0  0  0  0  0  0
    3.7382   -0.8504   -0.4754 H   0  0  0  0  0  0
    7.4535    0.9936    0.6439 H   0  0  0  0  0  0
    3.7901    2.9056    1.7008 H   0  0  0  0  0  0
    1.6398   -0.9007    1.3314 H   0  0  0  0  0  0
   -0.3803   -1.9622    1.7266 H   0  0  0  0  0  0
   -2.5136    1.5490    0.4665 H   0  0  0  0  0  0
   -2.5028   -3.0966    2.1444 H   0  0  0  0  0  0
   -4.6332    0.4057    0.8872 H   0  0  0  0  0  0
    9.2095   -6.9435   -3.4410 H   0  0  0  0  0  0
  1  2  2  0  0  0
  1  3  2  0  0  0
  1  4  1  0  0  0
  1  5  1  0  0  0
  4  6  1  0  0  0
  4 37  1  0  0  0
  5  7  1  0  0  0
  5  8  2  0  0  0
  6  9  1  0  0  0
  6 38  1  0  0  0
  6 39  1  0  0  0
  7 10  1  0  0  0
  8 11  1  0  0  0
  8 40  1  0  0  0
  9 12  1  0  0  0
  9 41  1  0  0  0
  9 42  1  0  0  0
 10 13  1  0  0  0
 10 11  2  0  0  0
 11 43  1  0  0  0
 12 44  1  0  0  0
 12 45  1  0  0  0
 12 54  1  0  0  0
 13 14  2  0  0  0
 13 15  1  0  0  0
 14 16  1  0  0  0
 14 46  1  0  0  0
 15 17  2  0  0  0
 15 47  1  0  0  0
 16 18  1  0  0  0
 16 19  2  0  0  0
 17 20  1  0  0  0
 17 19  1  0  0  0
 18 21  1  0  0  0
 18 22  1  0  0  0
 19 48  1  0  0  0
 20 23  2  0  0  0
 20 24  1  0  0  0
 21 25  2  0  0  0
 22 26  2  0  0  0
 22 49  1  0  0  0
 25 26  1  0  0  0
 26 27  1  0  0  0
 27 28  2  0  0  0
 27 29  1  0  0  0
 28 30  1  0  0  0
 28 50  1  0  0  0
 29 31  2  0  0  0
 29 51  1  0  0  0
 30 32  2  0  0  0
 30 52  1  0  0  0
 31 32  1  0  0  0
 31 53  1  0  0  0
 32 33  1  0  0  0
 33 34  1  0  0  0
 33 35  1  0  0  0
 33 36  1  0  0  0
M  CHG  2  12   1  24  -1
M  END
> <i_epik_Tot_Q>
0

> <i_epik_Tot_abs_Q>
2

> <i_lp_mmshare_version>
62121

> <i_m_Source_File_Index>
1

> <i_phase_Input_Structure_Number>
2

> <i_phase_Reference_Structure>
1

> <i_phase_Structure_Number>
2

> <Molecule Name>
23

> <Rotatable Bonds>
8

> <i_f3d_flags>
0

> <b_lp_Chiralities_Consistent>
1

> <r_canvas_IC50_human_P2Y14R,_nM>
2260

> <r_canvas_pIC50>
5.6458915608526

> <r_epik_Charging_Adjusted_Penalty>
0.0282437146945668

> <r_epik_Ionization_Penalty>
  0.0222

> <r_epik_Ionization_Penalty_Charging>
  0.0064

> <r_epik_Ionization_Penalty_Neutral>
  0.0157

> <r_epik_State_Penalty>
  0.0218

> <r_lp_Energy>
36.905536

> <r_lp_tautomer_probability>
1

> <r_phase_Similarity_to_Reference>
0.786866045056646

> <s_canvas_CHEMBLID>
CHEMBL5093465

> <s_canvas_Compound>
5

> <s_canvas_Paper>
Yu2018

> <s_epik_cmdline>
J2VwaWtfcHl0aG9uJywgJy1waCcsICc3LjAnLCAnLXRuJywgJzgnLCAnLW1hJywgJzUwMCcsICctaW1hZScsICc8aW5maWxlLm1hZT4nLCAnLW9tYWUnLCAnPG91dGZpbGUubWFlPic=

> <s_epik_input>
W05IMl1bQ0gyXVtDSDJdW05IXVMoPU8pKD1PKWMxc2MoW2NIXVtjSF0xKS1jMltjSF1jKFtjSF1jKFtjSF0yKUMoPU8pW09IXSktbjNubmMoW2NIXTMpLWM0W2NIXVtjSF1jKEMoRikoRilGKVtjSF1bY0hdNA==

> <s_lp_Force_Field>
S-OPLS

> <s_lp_Variant>
23-1

> <s_m_Source_File>
database-not-aligned-realigned.sdf

> <s_m_Source_Path>
/data/matteo/P2Y14-antagonists-piperidineDerivatives-Wen2023/14052024-optimized-alignment

> <s_m_entry_id>
128

> <s_m_entry_name>
database-not-aligned-realigned.1

> <s_m_job_name>
align_ligands_2

> <s_phase_Alignment_Method>
snapped core

> <s_phase_Alignment_Reason>


> <s_phase_Core_SMARTS>
a1aaaaa1-a2aa(aa2)-a3aaaaa3

$$$$
25
                    3D
 Schrodinger Suite 2023-2.
 57 60  0  0  1  0            999 V2000
    9.7732   -3.4204   -1.8968 S   0  0  0  0  0  0
   10.8374   -2.4652   -1.5693 O   0  0  0  0  0  0
    9.6383   -3.9919   -3.2411 O   0  0  0  0  0  0
    9.8874   -4.7425   -0.7714 N   0  0  2  0  0  0
    8.2193   -2.6612   -1.4757 C   0  0  0  0  0  0
    8.7552   -5.6443   -0.9623 C   0  0  0  0  0  0
    8.1920   -1.1623   -0.6036 S   0  0  0  0  0  0
    6.9423   -3.1262   -1.7633 C   0  0  0  0  0  0
    8.7722   -6.1783   -2.3639 C   0  0  0  0  0  0
    6.4578   -1.1639   -0.6276 C   0  0  0  0  0  0
    5.9414   -2.2754   -1.2815 C   0  0  0  0  0  0
   10.0515   -6.9254   -2.5989 C   0  0  0  0  0  0
    5.6959   -0.0428    0.0147 C   0  0  0  0  0  0
   10.0680   -7.4452   -3.9631 N   0  3  0  0  0  0
    4.2688   -0.0378   -0.0014 C   0  0  0  0  0  0
    6.3738    1.0063    0.6388 C   0  0  0  0  0  0
    3.5729    1.0430    0.6162 C   0  0  0  0  0  0
    5.7140    2.0823    1.2549 C   0  0  0  0  0  0
    2.1133    1.0787    0.6116 N   0  0  0  0  0  0
    4.3095    2.0826    1.2307 C   0  0  0  0  0  0
    6.4824    3.1926    1.9177 C   0  0  0  0  0  0
    1.4087    2.1505    0.2272 N   0  0  0  0  0  0
    1.2788    0.0570    0.9868 C   0  0  0  0  0  0
    7.7329    3.1460    1.9172 O   0  0  0  0  0  0
    5.8483    4.1301    2.4513 O   0  5  0  0  0  0
    0.0745    1.8131    0.3572 N   0  0  0  0  0  0
    0.0041    0.5726    0.8072 C   0  0  0  0  0  0
   -1.2977   -0.1255    1.0677 C   0  0  0  0  0  0
   -1.3030   -1.4321    1.5414 C   0  0  0  0  0  0
   -2.4987    0.5343    0.8355 C   0  0  0  0  0  0
   -2.5092   -2.0790    1.7828 C   0  0  0  0  0  0
   -3.7049   -0.1126    1.0769 C   0  0  0  0  0  0
   -3.7102   -1.4192    1.5505 C   0  0  0  0  0  0
   -5.0120   -2.1173    1.8111 C   0  0  0  0  0  0
   -4.8466   -3.4241    1.6134 F   0  0  0  0  0  0
   -5.9312   -1.6407    0.9732 F   0  0  0  0  0  0
   -5.3787   -1.8881    3.0709 F   0  0  0  0  0  0
    9.8771   -4.3835    0.1726 H   0  0  0  0  0  0
    8.8272   -6.4723   -0.2571 H   0  0  0  0  0  0
    7.8255   -5.1014   -0.7916 H   0  0  0  0  0  0
    6.7429   -4.0444   -2.3004 H   0  0  0  0  0  0
    7.9269   -6.8516   -2.5064 H   0  0  0  0  0  0
    8.7001   -5.3503   -3.0691 H   0  0  0  0  0  0
    4.8827   -2.4632   -1.4049 H   0  0  0  0  0  0
   10.8968   -6.2521   -2.4563 H   0  0  0  0  0  0
   10.1235   -7.7534   -1.8937 H   0  0  0  0  0  0
   10.9294   -7.9482   -4.1213 H   0  0  0  0  0  0
   10.0013   -6.6780   -4.6165 H   0  0  0  0  0  0
    3.7382   -0.8505   -0.4756 H   0  0  0  0  0  0
    7.4519    0.9894    0.6456 H   0  0  0  0  0  0
    3.7901    2.9054    1.7008 H   0  0  0  0  0  0
    1.6399   -0.9008    1.3312 H   0  0  0  0  0  0
   -0.3805   -1.9625    1.7269 H   0  0  0  0  0  0
   -2.5137    1.5489    0.4667 H   0  0  0  0  0  0
   -2.5029   -3.0968    2.1440 H   0  0  0  0  0  0
   -4.6333    0.4054    0.8866 H   0  0  0  0  0  0
    9.2847   -8.0690   -4.0952 H   0  0  0  0  0  0
  1  2  2  0  0  0
  1  3  2  0  0  0
  1  4  1  0  0  0
  1  5  1  0  0  0
  4  6  1  0  0  0
  4 38  1  0  0  0
  5  7  1  0  0  0
  5  8  2  0  0  0
  6  9  1  0  0  0
  6 39  1  0  0  0
  6 40  1  0  0  0
  7 10  1  0  0  0
  8 11  1  0  0  0
  8 41  1  0  0  0
  9 12  1  0  0  0
  9 42  1  0  0  0
  9 43  1  0  0  0
 10 13  1  0  0  0
 10 11  2  0  0  0
 11 44  1  0  0  0
 12 14  1  0  0  0
 12 45  1  0  0  0
 12 46  1  0  0  0
 13 15  2  0  0  0
 13 16  1  0  0  0
 14 47  1  0  0  0
 14 48  1  0  0  0
 14 57  1  0  0  0
 15 17  1  0  0  0
 15 49  1  0  0  0
 16 18  2  0  0  0
 16 50  1  0  0  0
 17 19  1  0  0  0
 17 20  2  0  0  0
 18 21  1  0  0  0
 18 20  1  0  0  0
 19 22  1  0  0  0
 19 23  1  0  0  0
 20 51  1  0  0  0
 21 24  2  0  0  0
 21 25  1  0  0  0
 22 26  2  0  0  0
 23 27  2  0  0  0
 23 52  1  0  0  0
 26 27  1  0  0  0
 27 28  1  0  0  0
 28 29  2  0  0  0
 28 30  1  0  0  0
 29 31  1  0  0  0
 29 53  1  0  0  0
 30 32  2  0  0  0
 30 54  1  0  0  0
 31 33  2  0  0  0
 31 55  1  0  0  0
 32 33  1  0  0  0
 32 56  1  0  0  0
 33 34  1  0  0  0
 34 35  1  0  0  0
 34 36  1  0  0  0
 34 37  1  0  0  0
M  CHG  2  14   1  25  -1
M  END
> <i_epik_Tot_Q>
0

> <i_epik_Tot_abs_Q>
2

> <i_lp_mmshare_version>
62121

> <i_m_Source_File_Index>
2

> <i_phase_Input_Structure_Number>
3

> <i_phase_Reference_Structure>
1

> <i_phase_Structure_Number>
3

> <Molecule Name>
25

> <Rotatable Bonds>
9

> <i_f3d_flags>
0

> <b_lp_Chiralities_Consistent>
1

> <r_canvas_IC50_human_P2Y14R,_nM>
756

> <r_canvas_pIC50>
6.12147820449879

> <r_epik_Charging_Adjusted_Penalty>
0.00129678962284046

> <r_epik_Ionization_Penalty>
  0.0042

> <r_epik_Ionization_Penalty_Charging>
  0.0013

> <r_epik_Ionization_Penalty_Neutral>
  0.0029

> <r_epik_State_Penalty>
  0.0000

> <r_lp_Energy>
36.212699

> <r_lp_tautomer_probability>
1

> <r_phase_Similarity_to_Reference>
0.793668593629095

> <s_canvas_CHEMBLID>
CHEMBL5087295

> <s_canvas_Compound>
7

> <s_canvas_Paper>
Yu2018

> <s_epik_cmdline>
J2VwaWtfcHl0aG9uJywgJy1waCcsICc3LjAnLCAnLXRuJywgJzgnLCAnLW1hJywgJzUwMCcsICctaW1hZScsICc8aW5maWxlLm1hZT4nLCAnLW9tYWUnLCAnPG91dGZpbGUubWFlPic=

> <s_epik_input>
W05IMl1bQ0gyXVtDSDJdW0NIMl1bTkhdUyg9TykoPU8pYzFzYyhbY0hdW2NIXTEpLWMyW2NIXWMoW2NIXWMoW2NIXTIpQyg9TylbT0hdKS1uM25uYyhbY0hdMyktYzRbY0hdW2NIXWMoQyhGKShGKUYpW2NIXVtjSF00

> <s_lp_Force_Field>
S-OPLS

> <s_lp_Variant>
25-1

> <s_m_Source_File>
database-not-aligned-realigned.sdf

> <s_m_Source_Path>
/data/matteo/P2Y14-antagonists-piperidineDerivatives-Wen2023/14052024-optimized-alignment

> <s_m_entry_id>
129

> <s_m_entry_name>
database-not-aligned-realigned.2

> <s_m_job_name>
align_ligands_2

> <s_phase_Alignment_Method>
snapped core

> <s_phase_Alignment_Reason>


> <s_phase_Core_SMARTS>
a1aaaaa1-a2aa(aa2)-a3aaaaa3

$$$$
27
                    3D
 Schrodinger Suite 2023-2.
 60 63  0  0  1  0            999 V2000
    9.7734   -3.4163   -1.9036 S   0  0  0  0  0  0
   10.8368   -2.6406   -1.2560 O   0  0  0  0  0  0
    9.7698   -3.6599   -3.3503 O   0  0  0  0  0  0
    9.6904   -4.9621   -1.1090 N   0  0  1  0  0  0
    8.2194   -2.6581   -1.4809 C   0  0  0  0  0  0
    8.5460   -5.7115   -1.6192 C   0  0  0  0  0  0
    8.1921   -1.1609   -0.6059 S   0  0  0  0  0  0
    6.9424   -3.1225   -1.7696 C   0  0  0  0  0  0
    9.0225   -6.9927   -2.2367 C   0  0  0  0  0  0
    6.4579   -1.1625   -0.6299 C   0  0  0  0  0  0
    5.9415   -2.2728   -1.2860 C   0  0  0  0  0  0
    9.9618   -6.6850   -3.3650 C   0  0  0  0  0  0
    5.6959   -0.0428    0.0147 C   0  0  0  0  0  0
   10.4383   -7.9662   -3.9825 C   0  0  0  0  0  0
    4.2688   -0.0378   -0.0014 C   0  0  0  0  0  0
    6.3738    1.0063    0.6388 C   0  0  0  0  0  0
   11.1322   -8.7634   -2.9753 N   0  3  0  0  0  0
    3.5729    1.0430    0.6162 C   0  0  0  0  0  0
    5.7140    2.0823    1.2549 C   0  0  0  0  0  0
    2.1133    1.0787    0.6116 N   0  0  0  0  0  0
    4.3095    2.0826    1.2307 C   0  0  0  0  0  0
    6.4824    3.1926    1.9177 C   0  0  0  0  0  0
    1.4087    2.1505    0.2272 N   0  0  0  0  0  0
    1.2788    0.0570    0.9868 C   0  0  0  0  0  0
    7.7329    3.1460    1.9172 O   0  0  0  0  0  0
    5.8483    4.1301    2.4513 O   0  5  0  0  0  0
    0.0745    1.8131    0.3572 N   0  0  0  0  0  0
    0.0041    0.5726    0.8072 C   0  0  0  0  0  0
   -1.2977   -0.1255    1.0677 C   0  0  0  0  0  0
   -1.3030   -1.4321    1.5414 C   0  0  0  0  0  0
   -2.4987    0.5343    0.8355 C   0  0  0  0  0  0
   -2.5092   -2.0790    1.7828 C   0  0  0  0  0  0
   -3.7049   -0.1126    1.0769 C   0  0  0  0  0  0
   -3.7102   -1.4192    1.5505 C   0  0  0  0  0  0
   -5.0120   -2.1173    1.8111 C   0  0  0  0  0  0
   -4.8466   -3.4241    1.6134 F   0  0  0  0  0  0
   -5.9312   -1.6407    0.9732 F   0  0  0  0  0  0
   -5.3787   -1.8881    3.0709 F   0  0  0  0  0  0
   10.5392   -5.4793   -1.2883 H   0  0  0  0  0  0
    7.8634   -5.9352   -0.7993 H   0  0  0  0  0  0
    8.0280   -5.1163   -2.3712 H   0  0  0  0  0  0
    6.7431   -4.0397   -2.3085 H   0  0  0  0  0  0
    9.5406   -7.5879   -1.4847 H   0  0  0  0  0  0
    8.1681   -7.5523   -2.6177 H   0  0  0  0  0  0
    4.8828   -2.4603   -1.4098 H   0  0  0  0  0  0
    9.4438   -6.0898   -4.1170 H   0  0  0  0  0  0
   10.8162   -6.1254   -2.9841 H   0  0  0  0  0  0
    9.5840   -8.5257   -4.3634 H   0  0  0  0  0  0
   11.1209   -7.7426   -4.8024 H   0  0  0  0  0  0
    3.7383   -0.8500   -0.4766 H   0  0  0  0  0  0
    7.4540    0.9947    0.6403 H   0  0  0  0  0  0
   11.4531   -9.6261   -3.3911 H   0  0  0  0  0  0
   10.4998   -8.9706   -2.2156 H   0  0  0  0  0  0
    3.7894    2.9027    1.7045 H   0  0  0  0  0  0
    1.6393   -0.9010    1.3316 H   0  0  0  0  0  0
   -0.3798   -1.9596    1.7287 H   0  0  0  0  0  0
   -2.5157    1.5503    0.4691 H   0  0  0  0  0  0
   -2.5040   -3.0919    2.1577 H   0  0  0  0  0  0
   -4.6326    0.4113    0.9005 H   0  0  0  0  0  0
   11.9239   -8.2450   -2.6223 H   0  0  0  0  0  0
  1  2  2  0  0  0
  1  3  2  0  0  0
  1  4  1  0  0  0
  1  5  1  0  0  0
  4  6  1  0  0  0
  4 39  1  0  0  0
  5  7  1  0  0  0
  5  8  2  0  0  0
  6  9  1  0  0  0
  6 40  1  0  0  0
  6 41  1  0  0  0
  7 10  1  0  0  0
  8 11  1  0  0  0
  8 42  1  0  0  0
  9 12  1  0  0  0
  9 43  1  0  0  0
  9 44  1  0  0  0
 10 13  1  0  0  0
 10 11  2  0  0  0
 11 45  1  0  0  0
 12 14  1  0  0  0
 12 46  1  0  0  0
 12 47  1  0  0  0
 13 15  2  0  0  0
 13 16  1  0  0  0
 14 17  1  0  0  0
 14 48  1  0  0  0
 14 49  1  0  0  0
 15 18  1  0  0  0
 15 50  1  0  0  0
 16 19  2  0  0  0
 16 51  1  0  0  0
 17 52  1  0  0  0
 17 53  1  0  0  0
 17 60  1  0  0  0
 18 20  1  0  0  0
 18 21  2  0  0  0
 19 22  1  0  0  0
 19 21  1  0  0  0
 20 23  1  0  0  0
 20 24  1  0  0  0
 21 54  1  0  0  0
 22 25  2  0  0  0
 22 26  1  0  0  0
 23 27  2  0  0  0
 24 28  2  0  0  0
 24 55  1  0  0  0
 27 28  1  0  0  0
 28 29  1  0  0  0
 29 30  2  0  0  0
 29 31  1  0  0  0
 30 32  1  0  0  0
 30 56  1  0  0  0
 31 33  2  0  0  0
 31 57  1  0  0  0
 32 34  2  0  0  0
 32 58  1  0  0  0
 33 34  1  0  0  0
 33 59  1  0  0  0
 34 35  1  0  0  0
 35 36  1  0  0  0
 35 37  1  0  0  0
 35 38  1  0  0  0
M  CHG  2  17   1  26  -1
M  END
> <i_epik_Tot_Q>
0

> <i_epik_Tot_abs_Q>
2

> <i_lp_mmshare_version>
62121

> <i_m_Source_File_Index>
3

> <i_phase_Input_Structure_Number>
4

> <i_phase_Reference_Structure>
1

> <i_phase_Structure_Number>
4

> <Molecule Name>
27

> <Rotatable Bonds>
10

> <i_f3d_flags>
0

> <b_lp_Chiralities_Consistent>
1

> <r_canvas_IC50_human_P2Y14R,_nM>
2180

> <r_canvas_pIC50>
5.6615435063954

> <r_epik_Charging_Adjusted_Penalty>
0.000729535276378207

> <r_epik_Ionization_Penalty>
  0.0024

> <r_epik_Ionization_Penalty_Charging>
  0.0007

> <r_epik_Ionization_Penalty_Neutral>
  0.0017

> <r_epik_State_Penalty>
  0.0000

> <r_lp_Energy>
37.769052

> <r_lp_tautomer_probability>
1

> <r_phase_Similarity_to_Reference>
0.797110674347158

> <s_canvas_CHEMBLID>
CHEMBL5086827

> <s_canvas_Compound>
9

> <s_canvas_Paper>
Yu2018

> <s_epik_cmdline>
J2VwaWtfcHl0aG9uJywgJy1waCcsICc3LjAnLCAnLXRuJywgJzgnLCAnLW1hJywgJzUwMCcsICctaW1hZScsICc8aW5maWxlLm1hZT4nLCAnLW9tYWUnLCAnPG91dGZpbGUubWFlPic=

> <s_epik_input>
W05IMl1bQ0gyXVtDSDJdW0NIMl1bQ0gyXVtOSF1TKD1PKSg9TyljMXNjKFtjSF1bY0hdMSktYzJbY0hdYyhbY0hdYyhbY0hdMilDKD1PKVtPSF0pLW4zbm5jKFtjSF0zKS1jNFtjSF1bY0hdYyhDKEYpKEYpRilbY0hdW2NIXTQ=

> <s_lp_Force_Field>
S-OPLS

> <s_lp_Variant>
27-1

> <s_m_Source_File>
database-not-aligned-realigned.sdf

> <s_m_Source_Path>
/data/matteo/P2Y14-antagonists-piperidineDerivatives-Wen2023/14052024-optimized-alignment

> <s_m_entry_id>
130

> <s_m_entry_name>
database-not-aligned-realigned.3

> <s_m_job_name>
align_ligands_2

> <s_phase_Alignment_Method>
snapped core

> <s_phase_Alignment_Reason>


> <s_phase_Core_SMARTS>
a1aaaaa1-a2aa(aa2)-a3aaaaa3

$$$$
28
                    3D
 Schrodinger Suite 2023-2.
 58 61  0  0  1  0            999 V2000
    9.7733   -3.4230   -1.8919 S   0  0  0  0  0  0
   10.8374   -2.4673   -1.5657 O   0  0  0  0  0  0
    9.6385   -3.9965   -3.2354 O   0  0  0  0  0  0
    9.8876   -4.7435   -0.7645 N   0  0  1  0  0  0
    8.2194   -2.6633   -1.4718 C   0  0  0  0  0  0
    8.7554   -5.6456   -0.9542 C   0  0  0  0  0  0
    8.1921   -1.1631   -0.6020 S   0  0  0  0  0  0
    6.9424   -3.1287   -1.7588 C   0  0  0  0  0  0
    8.7724   -6.1817   -2.3550 C   0  0  0  0  0  0
    6.4579   -1.1648   -0.6260 C   0  0  0  0  0  0
    5.9415   -2.2773   -1.2783 C   0  0  0  0  0  0
   10.0517   -6.9290   -2.5889 C   0  0  0  0  0  0
    5.6959   -0.0428    0.0147 C   0  0  0  0  0  0
   10.0687   -7.4651   -3.9897 C   0  0  0  0  0  0
    4.2688   -0.0378   -0.0014 C   0  0  0  0  0  0
    6.3738    1.0063    0.6388 C   0  0  0  0  0  0
   11.2457   -8.1527   -4.2049 O   0  0  0  0  0  0
    3.5729    1.0430    0.6162 C   0  0  0  0  0  0
    5.7140    2.0823    1.2549 C   0  0  0  0  0  0
    2.1133    1.0787    0.6116 N   0  0  0  0  0  0
    4.3095    2.0826    1.2307 C   0  0  0  0  0  0
    6.4824    3.1926    1.9177 C   0  0  0  0  0  0
    1.4087    2.1505    0.2272 N   0  0  0  0  0  0
    1.2788    0.0570    0.9868 C   0  0  0  0  0  0
    7.7329    3.1460    1.9172 O   0  0  0  0  0  0
    5.8483    4.1301    2.4513 O   0  5  0  0  0  0
    0.0745    1.8131    0.3572 N   0  0  0  0  0  0
    0.0041    0.5726    0.8072 C   0  0  0  0  0  0
   -1.2977   -0.1255    1.0677 C   0  0  0  0  0  0
   -2.4987    0.5343    0.8355 C   0  0  0  0  0  0
   -1.3030   -1.4321    1.5414 C   0  0  0  0  0  0
   -3.7049   -0.1126    1.0769 C   0  0  0  0  0  0
   -2.5092   -2.0790    1.7828 C   0  0  0  0  0  0
   -3.7102   -1.4192    1.5505 C   0  0  0  0  0  0
   -5.0120   -2.1173    1.8111 C   0  0  0  0  0  0
   -4.8466   -3.4241    1.6134 F   0  0  0  0  0  0
   -5.9312   -1.6407    0.9732 F   0  0  0  0  0  0
   -5.3787   -1.8881    3.0709 F   0  0  0  0  0  0
   10.7493   -5.2466   -0.9208 H   0  0  0  0  0  0
    8.8274   -6.4726   -0.2478 H   0  0  0  0  0  0
    7.8257   -5.1025   -0.7842 H   0  0  0  0  0  0
    6.7430   -4.0477   -2.2946 H   0  0  0  0  0  0
    7.9271   -6.8551   -2.4966 H   0  0  0  0  0  0
    8.7003   -5.3547   -3.0614 H   0  0  0  0  0  0
    4.8828   -2.4653   -1.4014 H   0  0  0  0  0  0
   10.8970   -6.2556   -2.4473 H   0  0  0  0  0  0
   10.1238   -7.7560   -1.8825 H   0  0  0  0  0  0
    9.2234   -8.1386   -4.1313 H   0  0  0  0  0  0
    9.9967   -6.6381   -4.6961 H   0  0  0  0  0  0
    3.7387   -0.8505   -0.4755 H   0  0  0  0  0  0
    7.4524    0.9921    0.6539 H   0  0  0  0  0  0
   11.8686   -8.1793   -3.4230 H   0  0  0  0  0  0
    3.7898    2.9051    1.7007 H   0  0  0  0  0  0
    1.6401   -0.9008    1.3312 H   0  0  0  0  0  0
   -2.5138    1.5488    0.4666 H   0  0  0  0  0  0
   -0.3804   -1.9622    1.7272 H   0  0  0  0  0  0
   -4.6335    0.4052    0.8871 H   0  0  0  0  0  0
   -2.5024   -3.0968    2.1440 H   0  0  0  0  0  0
  1  2  2  0  0  0
  1  3  2  0  0  0
  1  4  1  0  0  0
  1  5  1  0  0  0
  4  6  1  0  0  0
  4 39  1  0  0  0
  5  7  1  0  0  0
  5  8  2  0  0  0
  6  9  1  0  0  0
  6 40  1  0  0  0
  6 41  1  0  0  0
  7 10  1  0  0  0
  8 11  1  0  0  0
  8 42  1  0  0  0
  9 12  1  0  0  0
  9 43  1  0  0  0
  9 44  1  0  0  0
 10 13  1  0  0  0
 10 11  2  0  0  0
 11 45  1  0  0  0
 12 14  1  0  0  0
 12 46  1  0  0  0
 12 47  1  0  0  0
 13 15  2  0  0  0
 13 16  1  0  0  0
 14 17  1  0  0  0
 14 48  1  0  0  0
 14 49  1  0  0  0
 15 18  1  0  0  0
 15 50  1  0  0  0
 16 19  2  0  0  0
 16 51  1  0  0  0
 17 52  1  0  0  0
 18 20  1  0  0  0
 18 21  2  0  0  0
 19 22  1  0  0  0
 19 21  1  0  0  0
 20 23  1  0  0  0
 20 24  1  0  0  0
 21 53  1  0  0  0
 22 25  2  0  0  0
 22 26  1  0  0  0
 23 27  2  0  0  0
 24 28  2  0  0  0
 24 54  1  0  0  0
 27 28  1  0  0  0
 28 29  1  0  0  0
 29 30  2  0  0  0
 29 31  1  0  0  0
 30 32  1  0  0  0
 30 55  1  0  0  0
 31 33  2  0  0  0
 31 56  1  0  0  0
 32 34  2  0  0  0
 32 57  1  0  0  0
 33 34  1  0  0  0
 33 58  1  0  0  0
 34 35  1  0  0  0
 35 36  1  0  0  0
 35 37  1  0  0  0
 35 38  1  0  0  0
M  CHG  1  26  -1
M  END
> <i_epik_Tot_Q>
-1

> <i_epik_Tot_abs_Q>
1

> <i_lp_mmshare_version>
62121

> <i_m_Source_File_Index>
4

> <i_phase_Input_Structure_Number>
5

> <i_phase_Reference_Structure>
1

> <i_phase_Structure_Number>
5

> <Molecule Name>
28

> <Rotatable Bonds>
10

> <i_f3d_flags>
0

> <b_lp_Chiralities_Consistent>
1

> <r_canvas_IC50_human_P2Y14R,_nM>
8420

> <r_canvas_pIC50>
5.07468790850035

> <r_epik_Charging_Adjusted_Penalty>
0.00144887929359191

> <r_epik_Ionization_Penalty>
  0.0015

> <r_epik_Ionization_Penalty_Charging>
  0.0002

> <r_epik_Ionization_Penalty_Neutral>
  0.0013

> <r_epik_State_Penalty>
  0.0013

> <r_lp_Energy>
35.267524

> <r_lp_tautomer_probability>
1

> <r_phase_Similarity_to_Reference>
0.796048522865227

> <s_canvas_CHEMBLID>
CHEMBL5086761

> <s_canvas_Compound>
10

> <s_canvas_Paper>
Yu2018

> <s_epik_cmdline>
J2VwaWtfcHl0aG9uJywgJy1waCcsICc3LjAnLCAnLXRuJywgJzgnLCAnLW1hJywgJzUwMCcsICctaW1hZScsICc8aW5maWxlLm1hZT4nLCAnLW9tYWUnLCAnPG91dGZpbGUubWFlPic=

> <s_epik_input>
W09IXVtDSDJdW0NIMl1bQ0gyXVtDSDJdW05IXVMoPU8pKD1PKWMxc2MoW2NIXVtjSF0xKS1jMltjSF1jKFtjSF1jKFtjSF0yKUMoPU8pW09IXSktbjNubmMoW2NIXTMpLWM0W2NIXVtjSF1jKEMoRikoRilGKVtjSF1bY0hdNA==

> <s_lp_Force_Field>
S-OPLS

> <s_lp_Variant>
28-1

> <s_m_Source_File>
database-not-aligned-realigned.sdf

> <s_m_Source_Path>
/data/matteo/P2Y14-antagonists-piperidineDerivatives-Wen2023/14052024-optimized-alignment

> <s_m_entry_id>
131

> <s_m_entry_name>
database-not-aligned-realigned.4

> <s_m_job_name>
align_ligands_2

> <s_phase_Alignment_Method>
snapped core

> <s_phase_Alignment_Reason>


> <s_phase_Core_SMARTS>
a1aaaaa1-a2aa(aa2)-a3aaaaa3

$$$$
29
                    3D
 Schrodinger Suite 2023-2.
 72 76  0  0  1  0            999 V2000
    9.7734   -3.4175   -1.9015 S   0  0  0  0  0  0
   10.8368   -2.6413   -1.2543 O   0  0  0  0  0  0
    9.7698   -3.6619   -3.3480 O   0  0  0  0  0  0
    9.6905   -4.9627   -1.1059 N   0  0  0  0  0  0
    8.2195   -2.6590   -1.4793 C   0  0  0  0  0  0
   10.9203   -5.7172   -1.3809 C   0  0  0  0  0  0
    8.5381   -5.7133   -1.6217 C   0  0  0  0  0  0
    8.1921   -1.1613   -0.6051 S   0  0  0  0  0  0
    6.9425   -3.1236   -1.7676 C   0  0  0  0  0  0
   11.0734   -6.0073   -2.8992 C   0  0  0  0  0  0
    8.6911   -6.0034   -3.1401 C   0  0  0  0  0  0
    6.4579   -1.1629   -0.6292 C   0  0  0  0  0  0
    5.9416   -2.2736   -1.2846 C   0  0  0  0  0  0
    9.9210   -6.7579   -3.4150 N   0  0  0  0  0  0
    5.6959   -0.0428    0.0147 C   0  0  0  0  0  0
    9.8514   -8.0545   -2.7475 C   0  0  0  0  0  0
    4.2688   -0.0378   -0.0014 C   0  0  0  0  0  0
    6.3738    1.0063    0.6388 C   0  0  0  0  0  0
   10.6958   -8.9430   -2.7559 O   0  0  0  0  0  0
    8.6722   -8.1548   -2.0829 O   0  0  0  0  0  0
    3.5729    1.0430    0.6162 C   0  0  0  0  0  0
    5.7140    2.0823    1.2549 C   0  0  0  0  0  0
    8.6246   -9.3849   -1.4592 C   0  0  0  0  0  0
    2.1133    1.0787    0.6116 N   0  0  0  0  0  0
    4.3095    2.0826    1.2307 C   0  0  0  0  0  0
    6.4824    3.1926    1.9177 C   0  0  0  0  0  0
    9.8127   -9.4541   -0.4842 C   0  0  0  0  0  0
    8.7322  -10.4613   -2.5531 C   0  0  0  0  0  0
    7.2811   -9.4730   -0.7147 C   0  0  0  0  0  0
    1.4087    2.1505    0.2272 N   0  0  0  0  0  0
    1.2788    0.0570    0.9868 C   0  0  0  0  0  0
    7.7329    3.1460    1.9172 O   0  0  0  0  0  0
    5.8483    4.1301    2.4513 O   0  5  0  0  0  0
    0.0745    1.8131    0.3572 N   0  0  0  0  0  0
    0.0041    0.5726    0.8072 C   0  0  0  0  0  0
   -1.2977   -0.1255    1.0677 C   0  0  0  0  0  0
   -2.4987    0.5343    0.8355 C   0  0  0  0  0  0
   -1.3030   -1.4321    1.5414 C   0  0  0  0  0  0
   -3.7049   -0.1126    1.0769 C   0  0  0  0  0  0
   -2.5092   -2.0790    1.7828 C   0  0  0  0  0  0
   -3.7102   -1.4192    1.5505 C   0  0  0  0  0  0
   -5.0120   -2.1173    1.8111 C   0  0  0  0  0  0
   -4.8466   -3.4241    1.6134 F   0  0  0  0  0  0
   -5.9312   -1.6407    0.9732 F   0  0  0  0  0  0
   -5.3787   -1.8881    3.0709 F   0  0  0  0  0  0
   11.7837   -5.1524   -1.0237 H   0  0  0  0  0  0
   10.9014   -6.6527   -0.8169 H   0  0  0  0  0  0
    8.4407   -6.6487   -1.0656 H   0  0  0  0  0  0
    7.6225   -5.1456   -1.4444 H   0  0  0  0  0  0
    6.7431   -4.0411   -2.3060 H   0  0  0  0  0  0
   11.1708   -5.0719   -3.4553 H   0  0  0  0  0  0
   11.9889   -6.5750   -3.0765 H   0  0  0  0  0  0
    7.8278   -6.5682   -3.4973 H   0  0  0  0  0  0
    8.7100   -5.0679   -3.7041 H   0  0  0  0  0  0
    4.8829   -2.4612   -1.4083 H   0  0  0  0  0  0
    3.7387   -0.8505   -0.4758 H   0  0  0  0  0  0
    7.4542    0.9960    0.6429 H   0  0  0  0  0  0
    3.7894    2.9042    1.7018 H   0  0  0  0  0  0
    9.8380  -10.4061    0.0476 H   0  0  0  0  0  0
    9.7590   -8.6599    0.2614 H   0  0  0  0  0  0
   10.7620   -9.3430   -1.0093 H   0  0  0  0  0  0
    9.6645  -10.3662   -3.1110 H   0  0  0  0  0  0
    7.9147  -10.3792   -3.2703 H   0  0  0  0  0  0
    8.7011  -11.4659   -2.1294 H   0  0  0  0  0  0
    7.1742  -10.4260   -0.1950 H   0  0  0  0  0  0
    6.4406   -9.3753   -1.4029 H   0  0  0  0  0  0
    7.1874   -8.6791    0.0272 H   0  0  0  0  0  0
    1.6403   -0.9006    1.3313 H   0  0  0  0  0  0
   -2.5136    1.5488    0.4664 H   0  0  0  0  0  0
   -0.3804   -1.9622    1.7267 H   0  0  0  0  0  0
   -4.6333    0.4055    0.8869 H   0  0  0  0  0  0
   -2.5029   -3.0967    2.1442 H   0  0  0  0  0  0
  1  2  2  0  0  0
  1  3  2  0  0  0
  1  4  1  0  0  0
  1  5  1  0  0  0
  4  6  1  0  0  0
  4  7  1  0  0  0
  5  8  1  0  0  0
  5  9  2  0  0  0
  6 10  1  0  0  0
  6 46  1  0  0  0
  6 47  1  0  0  0
  7 11  1  0  0  0
  7 48  1  0  0  0
  7 49  1  0  0  0
  8 12  1  0  0  0
  9 13  1  0  0  0
  9 50  1  0  0  0
 10 14  1  0  0  0
 10 51  1  0  0  0
 10 52  1  0  0  0
 11 14  1  0  0  0
 11 53  1  0  0  0
 11 54  1  0  0  0
 12 15  1  0  0  0
 12 13  2  0  0  0
 13 55  1  0  0  0
 14 16  1  0  0  0
 15 17  2  0  0  0
 15 18  1  0  0  0
 16 19  2  0  0  0
 16 20  1  0  0  0
 17 21  1  0  0  0
 17 56  1  0  0  0
 18 22  2  0  0  0
 18 57  1  0  0  0
 20 23  1  0  0  0
 21 24  1  0  0  0
 21 25  2  0  0  0
 22 26  1  0  0  0
 22 25  1  0  0  0
 23 27  1  0  0  0
 23 28  1  0  0  0
 23 29  1  0  0  0
 24 30  1  0  0  0
 24 31  1  0  0  0
 25 58  1  0  0  0
 26 32  2  0  0  0
 26 33  1  0  0  0
 27 59  1  0  0  0
 27 60  1  0  0  0
 27 61  1  0  0  0
 28 62  1  0  0  0
 28 63  1  0  0  0
 28 64  1  0  0  0
 29 65  1  0  0  0
 29 66  1  0  0  0
 29 67  1  0  0  0
 30 34  2  0  0  0
 31 35  2  0  0  0
 31 68  1  0  0  0
 34 35  1  0  0  0
 35 36  1  0  0  0
 36 37  2  0  0  0
 36 38  1  0  0  0
 37 39  1  0  0  0
 37 69  1  0  0  0
 38 40  2  0  0  0
 38 70  1  0  0  0
 39 41  2  0  0  0
 39 71  1  0  0  0
 40 41  1  0  0  0
 40 72  1  0  0  0
 41 42  1  0  0  0
 42 43  1  0  0  0
 42 44  1  0  0  0
 42 45  1  0  0  0
M  CHG  1  33  -1
M  END
> <i_epik_Tot_Q>
-1

> <i_epik_Tot_abs_Q>
1

> <i_lp_mmshare_version>
62121

> <i_m_Source_File_Index>
5

> <i_phase_Input_Structure_Number>
6

> <i_phase_Reference_Structure>
1

> <i_phase_Structure_Number>
6

> <Molecule Name>
29

> <Rotatable Bonds>
8

> <i_f3d_flags>
0

> <b_lp_Chiralities_Consistent>
1

> <r_canvas_IC50_human_P2Y14R,_nM>
54700

> <r_canvas_pIC50>
4.26201267366657

> <r_epik_Charging_Adjusted_Penalty>
0.000170850126059449

> <r_epik_Ionization_Penalty>
  0.0002

> <r_epik_Ionization_Penalty_Charging>
  0.0002

> <r_epik_Ionization_Penalty_Neutral>
  0.0000

> <r_epik_State_Penalty>
  0.0000

> <r_lp_Energy>
49.057771

> <r_lp_tautomer_probability>
1

> <r_phase_Similarity_to_Reference>
0.750073204820268

> <s_canvas_CHEMBLID>
CHEMBL5085145

> <s_canvas_Compound>
11

> <s_canvas_Paper>
Yu2018

> <s_epik_Chemistry_Notes>
This compound has an ester and may undergo hydrolysis at high or low pH.

> <s_epik_cmdline>
J2VwaWtfcHl0aG9uJywgJy1waCcsICc3LjAnLCAnLXRuJywgJzgnLCAnLW1hJywgJzUwMCcsICctaW1hZScsICc8aW5maWxlLm1hZT4nLCAnLW9tYWUnLCAnPG91dGZpbGUubWFlPic=

> <s_epik_input>
W0NIM11DKFtDSDNdKShbQ0gzXSlPQyg9TylOKFtDSDJdW0NIMl0xKVtDSDJdW0NIMl1OMVMoPU8pKD1PKWMyc2MoW2NIXVtjSF0yKS1jM1tjSF1jKFtjSF1jKFtjSF0zKUMoPU8pW09IXSktbjRubmMoW2NIXTQpLWM1W2NIXVtjSF1jKEMoRikoRilGKVtjSF1bY0hdNQ==

> <s_lp_Force_Field>
S-OPLS

> <s_lp_Variant>
29-1

> <s_m_Source_File>
database-not-aligned-realigned.sdf

> <s_m_Source_Path>
/data/matteo/P2Y14-antagonists-piperidineDerivatives-Wen2023/14052024-optimized-alignment

> <s_m_entry_id>
132

> <s_m_entry_name>
database-not-aligned-realigned.5

> <s_m_job_name>
align_ligands_2

> <s_phase_Alignment_Method>
snapped core

> <s_phase_Alignment_Reason>


> <s_phase_Core_SMARTS>
a1aaaaa1-a2aa(aa2)-a3aaaaa3

$$$$
30
                    3D
 Schrodinger Suite 2023-2.
 57 61  0  0  1  0            999 V2000
    9.7734   -3.4177   -1.9012 S   0  0  0  0  0  0
   10.8368   -2.6414   -1.2541 O   0  0  0  0  0  0
    9.7698   -3.6623   -3.3477 O   0  0  0  0  0  0
    9.6904   -4.9628   -1.1055 N   0  0  0  0  0  0
    8.2194   -2.6591   -1.4791 C   0  0  0  0  0  0
   10.9203   -5.7174   -1.3804 C   0  0  0  0  0  0
    8.5380   -5.7134   -1.6212 C   0  0  0  0  0  0
    8.1921   -1.1614   -0.6051 S   0  0  0  0  0  0
    6.9424   -3.1238   -1.7674 C   0  0  0  0  0  0
   11.0733   -6.0077   -2.8987 C   0  0  0  0  0  0
    8.6910   -6.0038   -3.1395 C   0  0  0  0  0  0
    6.4579   -1.1630   -0.6291 C   0  0  0  0  0  0
    5.9416   -2.2737   -1.2844 C   0  0  0  0  0  0
    9.9209   -6.7583   -3.4144 N   0  0  0  0  0  0
    5.6959   -0.0428    0.0147 C   0  0  0  0  0  0
    4.2688   -0.0378   -0.0014 C   0  0  0  0  0  0
    6.3738    1.0063    0.6388 C   0  0  0  0  0  0
    3.5729    1.0430    0.6162 C   0  0  0  0  0  0
    5.7140    2.0823    1.2549 C   0  0  0  0  0  0
    2.1133    1.0787    0.6116 N   0  0  0  0  0  0
    4.3095    2.0826    1.2307 C   0  0  0  0  0  0
    6.4824    3.1926    1.9177 C   0  0  0  0  0  0
    1.4087    2.1505    0.2272 N   0  0  0  0  0  0
    1.2788    0.0570    0.9868 C   0  0  0  0  0  0
    7.7329    3.1460    1.9172 O   0  0  0  0  0  0
    5.8483    4.1301    2.4513 O   0  5  0  0  0  0
    0.0745    1.8131    0.3572 N   0  0  0  0  0  0
    0.0041    0.5726    0.8072 C   0  0  0  0  0  0
   -1.2977   -0.1255    1.0677 C   0  0  0  0  0  0
   -1.3030   -1.4321    1.5414 C   0  0  0  0  0  0
   -2.4987    0.5343    0.8355 C   0  0  0  0  0  0
   -2.5092   -2.0790    1.7828 C   0  0  0  0  0  0
   -3.7049   -0.1126    1.0769 C   0  0  0  0  0  0
   -3.7102   -1.4192    1.5505 C   0  0  0  0  0  0
   -5.0120   -2.1173    1.8111 C   0  0  0  0  0  0
   -4.8466   -3.4241    1.6134 F   0  0  0  0  0  0
   -5.9312   -1.6407    0.9732 F   0  0  0  0  0  0
   -5.3787   -1.8881    3.0709 F   0  0  0  0  0  0
   11.7836   -5.1526   -1.0233 H   0  0  0  0  0  0
   10.9014   -6.6529   -0.8163 H   0  0  0  0  0  0
    8.4406   -6.6488   -1.0651 H   0  0  0  0  0  0
    7.6225   -5.1457   -1.4439 H   0  0  0  0  0  0
    6.7431   -4.0413   -2.3057 H   0  0  0  0  0  0
   11.1707   -5.0723   -3.4549 H   0  0  0  0  0  0
   11.9888   -6.5754   -3.0760 H   0  0  0  0  0  0
    7.8277   -6.5685   -3.4967 H   0  0  0  0  0  0
    8.7099   -5.0682   -3.7036 H   0  0  0  0  0  0
    4.8828   -2.4614   -1.4081 H   0  0  0  0  0  0
    9.8723   -7.6634   -2.9483 H   0  0  0  0  0  0
    3.7387   -0.8504   -0.4760 H   0  0  0  0  0  0
    7.4541    0.9946    0.6428 H   0  0  0  0  0  0
    3.7891    2.9039    1.7018 H   0  0  0  0  0  0
    1.6403   -0.9007    1.3311 H   0  0  0  0  0  0
   -0.3798   -1.9599    1.7280 H   0  0  0  0  0  0
   -2.5157    1.5500    0.4684 H   0  0  0  0  0  0
   -2.5033   -3.0930    2.1547 H   0  0  0  0  0  0
   -4.6329    0.4099    0.8974 H   0  0  0  0  0  0
  1  2  2  0  0  0
  1  3  2  0  0  0
  1  4  1  0  0  0
  1  5  1  0  0  0
  4  6  1  0  0  0
  4  7  1  0  0  0
  5  8  1  0  0  0
  5  9  2  0  0  0
  6 10  1  0  0  0
  6 39  1  0  0  0
  6 40  1  0  0  0
  7 11  1  0  0  0
  7 41  1  0  0  0
  7 42  1  0  0  0
  8 12  1  0  0  0
  9 13  1  0  0  0
  9 43  1  0  0  0
 10 14  1  0  0  0
 10 44  1  0  0  0
 10 45  1  0  0  0
 11 14  1  0  0  0
 11 46  1  0  0  0
 11 47  1  0  0  0
 12 15  1  0  0  0
 12 13  2  0  0  0
 13 48  1  0  0  0
 14 49  1  0  0  0
 15 16  2  0  0  0
 15 17  1  0  0  0
 16 18  1  0  0  0
 16 50  1  0  0  0
 17 19  2  0  0  0
 17 51  1  0  0  0
 18 20  1  0  0  0
 18 21  2  0  0  0
 19 22  1  0  0  0
 19 21  1  0  0  0
 20 23  1  0  0  0
 20 24  1  0  0  0
 21 52  1  0  0  0
 22 25  2  0  0  0
 22 26  1  0  0  0
 23 27  2  0  0  0
 24 28  2  0  0  0
 24 53  1  0  0  0
 27 28  1  0  0  0
 28 29  1  0  0  0
 29 30  2  0  0  0
 29 31  1  0  0  0
 30 32  1  0  0  0
 30 54  1  0  0  0
 31 33  2  0  0  0
 31 55  1  0  0  0
 32 34  2  0  0  0
 32 56  1  0  0  0
 33 34  1  0  0  0
 33 57  1  0  0  0
 34 35  1  0  0  0
 35 36  1  0  0  0
 35 37  1  0  0  0
 35 38  1  0  0  0
M  CHG  1  26  -1
M  END
> <i_epik_Tot_Q>
-1

> <i_epik_Tot_abs_Q>
1

> <i_lp_mmshare_version>
62121

> <i_m_Source_File_Index>
6

> <i_phase_Input_Structure_Number>
7

> <i_phase_Reference_Structure>
1

> <i_phase_Structure_Number>
7

> <Molecule Name>
30

> <Rotatable Bonds>
6

> <i_f3d_flags>
0

> <b_lp_Chiralities_Consistent>
1

> <r_canvas_IC50_human_P2Y14R,_nM>
1510

> <r_canvas_pIC50>
5.82102305270683

> <r_epik_Charging_Adjusted_Penalty>
0.385363081358471

> <r_epik_Ionization_Penalty>
  0.3854

> <r_epik_Ionization_Penalty_Charging>
  0.0002

> <r_epik_Ionization_Penalty_Neutral>
  0.3852

> <r_epik_State_Penalty>
  0.3852

> <r_lp_Energy>
37.900277

> <r_lp_tautomer_probability>
1

> <r_phase_Similarity_to_Reference>
0.821067810539165

> <s_canvas_CHEMBLID>
CHEMBL5084659

> <s_canvas_Compound>
12

> <s_canvas_Paper>
Yu2018

> <s_epik_cmdline>
J2VwaWtfcHl0aG9uJywgJy1waCcsICc3LjAnLCAnLXRuJywgJzgnLCAnLW1hJywgJzUwMCcsICctaW1hZScsICc8aW5maWxlLm1hZT4nLCAnLW9tYWUnLCAnPG91dGZpbGUubWFlPic=

> <s_epik_input>
W0NIMl0xW0NIMl1bTkhdW0NIMl1bQ0gyXU4xUyg9TykoPU8pYzJzYyhbY0hdW2NIXTIpLWMzW2NIXWMoW2NIXWMoW2NIXTMpQyg9TylbT0hdKS1uNG5uYyhbY0hdNCktYzVbY0hdW2NIXWMoQyhGKShGKUYpW2NIXVtjSF01

> <s_lp_Force_Field>
S-OPLS

> <s_lp_Variant>
30-1

> <s_m_Source_File>
database-not-aligned-realigned.sdf

> <s_m_Source_Path>
/data/matteo/P2Y14-antagonists-piperidineDerivatives-Wen2023/14052024-optimized-alignment

> <s_m_entry_id>
133

> <s_m_entry_name>
database-not-aligned-realigned.6

> <s_m_job_name>
align_ligands_2

> <s_phase_Alignment_Method>
snapped core

> <s_phase_Alignment_Reason>


> <s_phase_Core_SMARTS>
a1aaaaa1-a2aa(aa2)-a3aaaaa3

$$$$
31
                    3D
 Schrodinger Suite 2023-2.
 45 48  0  0  1  0            999 V2000
    6.9349   -3.9027   -3.2831 S   0  0  0  0  0  0
    5.5123   -4.1382   -3.5755 O   0  0  0  0  0  0
    7.8403   -5.0115   -2.9447 O   0  0  0  0  0  0
    7.6179   -3.0469   -4.6099 N   0  0  0  0  0  0
    7.0250   -2.7362   -1.9422 C   0  0  0  0  0  0
    6.0404   -1.8234   -1.6610 S   0  0  0  0  0  0
    8.0283   -2.5573   -1.0314 C   0  0  0  0  0  0
    6.4765   -1.1525   -0.6250 C   0  0  0  0  0  0
    7.6535   -1.5359   -0.1970 C   0  0  0  0  0  0
    5.6959   -0.0428    0.0147 C   0  0  0  0  0  0
    4.2688   -0.0378   -0.0014 C   0  0  0  0  0  0
    6.3738    1.0063    0.6388 C   0  0  0  0  0  0
    3.5729    1.0430    0.6162 C   0  0  0  0  0  0
    5.7140    2.0823    1.2549 C   0  0  0  0  0  0
    2.1133    1.0787    0.6116 N   0  0  0  0  0  0
    4.3095    2.0826    1.2307 C   0  0  0  0  0  0
    6.4824    3.1926    1.9177 C   0  0  0  0  0  0
    1.4087    2.1505    0.2272 N   0  0  0  0  0  0
    1.2788    0.0570    0.9868 C   0  0  0  0  0  0
    7.7329    3.1460    1.9172 O   0  0  0  0  0  0
    5.8483    4.1301    2.4513 O   0  5  0  0  0  0
    0.0745    1.8131    0.3572 N   0  0  0  0  0  0
    0.0041    0.5726    0.8072 C   0  0  0  0  0  0
   -1.2977   -0.1255    1.0677 C   0  0  0  0  0  0
   -1.3030   -1.4321    1.5414 C   0  0  0  0  0  0
   -2.4987    0.5343    0.8355 C   0  0  0  0  0  0
   -2.5092   -2.0790    1.7828 C   0  0  0  0  0  0
   -3.7049   -0.1126    1.0769 C   0  0  0  0  0  0
   -3.7102   -1.4192    1.5505 C   0  0  0  0  0  0
   -5.0120   -2.1173    1.8111 C   0  0  0  0  0  0
   -4.8466   -3.4241    1.6134 F   0  0  0  0  0  0
   -5.9312   -1.6407    0.9732 F   0  0  0  0  0  0
   -5.3787   -1.8881    3.0709 F   0  0  0  0  0  0
    8.6034   -2.8304   -4.4617 H   0  0  0  0  0  0
    7.0612   -2.2335   -4.8712 H   0  0  0  0  0  0
    8.9560   -3.1061   -0.9609 H   0  0  0  0  0  0
    8.2325   -1.1568    0.6326 H   0  0  0  0  0  0
    3.7311   -0.8472   -0.4734 H   0  0  0  0  0  0
    7.4539    0.9865    0.6387 H   0  0  0  0  0  0
    3.7898    2.9044    1.7021 H   0  0  0  0  0  0
    1.6403   -0.9004    1.3312 H   0  0  0  0  0  0
   -0.3798   -1.9596    1.7285 H   0  0  0  0  0  0
   -2.5156    1.5502    0.4689 H   0  0  0  0  0  0
   -2.5035   -3.0923    2.1564 H   0  0  0  0  0  0
   -4.6331    0.4102    0.8990 H   0  0  0  0  0  0
  1  2  2  0  0  0
  1  3  2  0  0  0
  1  4  1  0  0  0
  1  5  1  0  0  0
  4 34  1  0  0  0
  4 35  1  0  0  0
  5  6  1  0  0  0
  5  7  2  0  0  0
  6  8  1  0  0  0
  7  9  1  0  0  0
  7 36  1  0  0  0
  8 10  1  0  0  0
  8  9  2  0  0  0
  9 37  1  0  0  0
 10 11  2  0  0  0
 10 12  1  0  0  0
 11 13  1  0  0  0
 11 38  1  0  0  0
 12 14  2  0  0  0
 12 39  1  0  0  0
 13 15  1  0  0  0
 13 16  2  0  0  0
 14 17  1  0  0  0
 14 16  1  0  0  0
 15 18  1  0  0  0
 15 19  1  0  0  0
 16 40  1  0  0  0
 17 20  2  0  0  0
 17 21  1  0  0  0
 18 22  2  0  0  0
 19 23  2  0  0  0
 19 41  1  0  0  0
 22 23  1  0  0  0
 23 24  1  0  0  0
 24 25  2  0  0  0
 24 26  1  0  0  0
 25 27  1  0  0  0
 25 42  1  0  0  0
 26 28  2  0  0  0
 26 43  1  0  0  0
 27 29  2  0  0  0
 27 44  1  0  0  0
 28 29  1  0  0  0
 28 45  1  0  0  0
 29 30  1  0  0  0
 30 31  1  0  0  0
 30 32  1  0  0  0
 30 33  1  0  0  0
M  CHG  1  21  -1
M  END
> <i_epik_Tot_Q>
-1

> <i_epik_Tot_abs_Q>
1

> <i_lp_mmshare_version>
62121

> <i_m_Source_File_Index>
7

> <i_phase_Input_Structure_Number>
8

> <i_phase_Reference_Structure>
1

> <i_phase_Structure_Number>
8

> <Molecule Name>
31

> <Rotatable Bonds>
6

> <i_f3d_flags>
0

> <b_lp_Chiralities_Consistent>
1

> <r_canvas_IC50_human_P2Y14R,_nM>
6440

> <r_canvas_pIC50>
5.19111413264019

> <r_epik_Charging_Adjusted_Penalty>
0.00368499240308529

> <r_epik_Ionization_Penalty>
  0.0037

> <r_epik_Ionization_Penalty_Charging>
  0.0002

> <r_epik_Ionization_Penalty_Neutral>
  0.0035

> <r_epik_State_Penalty>
  0.0035

> <r_lp_Energy>
31.460678

> <r_lp_tautomer_probability>
1

> <r_phase_Similarity_to_Reference>
0.72620350000781

> <s_canvas_CHEMBLID>
CHEMBL5083773

> <s_canvas_Compound>
13

> <s_canvas_Paper>
Yu2018

> <s_epik_cmdline>
J2VwaWtfcHl0aG9uJywgJy1waCcsICc3LjAnLCAnLXRuJywgJzgnLCAnLW1hJywgJzUwMCcsICctaW1hZScsICc8aW5maWxlLm1hZT4nLCAnLW9tYWUnLCAnPG91dGZpbGUubWFlPic=

> <s_epik_input>
Tz1TKD1PKShbTkgyXSljMXNjKFtjSF1bY0hdMSktYzJbY0hdYyhbY0hdYyhbY0hdMilDKD1PKVtPSF0pLW4zbm5jKFtjSF0zKS1jNFtjSF1bY0hdYyhDKEYpKEYpRilbY0hdW2NIXTQ=

> <s_lp_Force_Field>
S-OPLS

> <s_lp_Variant>
31-1

> <s_m_Source_File>
database-not-aligned-realigned.sdf

> <s_m_Source_Path>
/data/matteo/P2Y14-antagonists-piperidineDerivatives-Wen2023/14052024-optimized-alignment

> <s_m_entry_id>
134

> <s_m_entry_name>
database-not-aligned-realigned.7

> <s_m_job_name>
align_ligands_2

> <s_phase_Alignment_Method>
snapped core

> <s_phase_Alignment_Reason>


> <s_phase_Core_SMARTS>
a1aaaaa1-a2aa(aa2)-a3aaaaa3

$$$$
32
                    3D
 Schrodinger Suite 2023-2.
 65 68  0  0  1  0            999 V2000
    6.5950   -1.3450   -0.8225 S   0  0  0  0  0  0
    7.9315   -0.8242   -1.1515 O   0  0  0  0  0  0
    5.7445   -1.9020   -1.8860 O   0  0  0  0  0  0
    6.7800   -2.5561    0.4133 N   0  0  0  0  0  0
    5.6959   -0.0428    0.0147 C   0  0  0  0  0  0
    7.9832   -3.4093    0.3524 C   0  0  0  0  0  0
    5.5758   -3.3050    0.8314 C   0  0  0  0  0  0
    4.2688   -0.0378   -0.0014 C   0  0  0  0  0  0
    6.3738    1.0063    0.6388 C   0  0  0  0  0  0
    7.7383   -4.6087   -0.5801 C   0  0  0  0  0  0
    5.3524   -4.5495   -0.0550 C   0  0  0  0  0  0
    3.5729    1.0430    0.6162 C   0  0  0  0  0  0
    5.7140    2.0823    1.2549 C   0  0  0  0  0  0
    6.5723   -5.3593   -0.0921 N   0  0  0  0  0  0
    2.1133    1.0787    0.6116 N   0  0  0  0  0  0
    4.3095    2.0826    1.2307 C   0  0  0  0  0  0
    6.4824    3.1926    1.9177 C   0  0  0  0  0  0
    6.5807   -6.6968    0.3247 C   0  0  0  0  0  0
    1.4087    2.1505    0.2272 N   0  0  0  0  0  0
    1.2788    0.0570    0.9868 C   0  0  0  0  0  0
    7.7329    3.1460    1.9172 O   0  0  0  0  0  0
    5.8483    4.1301    2.4513 O   0  5  0  0  0  0
    5.5995   -7.3201    0.7320 O   0  0  0  0  0  0
    7.8290   -7.2242    0.2140 O   0  0  0  0  0  0
    0.0745    1.8131    0.3572 N   0  0  0  0  0  0
    0.0041    0.5726    0.8072 C   0  0  0  0  0  0
    8.1746   -8.5828    0.5143 C   0  0  0  0  0  0
   -1.2977   -0.1255    1.0677 C   0  0  0  0  0  0
    7.4506   -9.5652   -0.4318 C   0  0  0  0  0  0
    7.9200   -8.9232    1.9988 C   0  0  0  0  0  0
    9.6872   -8.6488    0.2408 C   0  0  0  0  0  0
   -1.3030   -1.4321    1.5414 C   0  0  0  0  0  0
   -2.4987    0.5343    0.8355 C   0  0  0  0  0  0
   -2.5092   -2.0790    1.7828 C   0  0  0  0  0  0
   -3.7049   -0.1126    1.0769 C   0  0  0  0  0  0
   -3.7102   -1.4192    1.5505 C   0  0  0  0  0  0
   -5.0120   -2.1173    1.8111 C   0  0  0  0  0  0
   -4.8466   -3.4241    1.6134 F   0  0  0  0  0  0
   -5.9312   -1.6407    0.9732 F   0  0  0  0  0  0
   -5.3787   -1.8881    3.0709 F   0  0  0  0  0  0
    8.8468   -2.8319    0.0241 H   0  0  0  0  0  0
    8.2167   -3.7629    1.3574 H   0  0  0  0  0  0
    5.7033   -3.6149    1.8691 H   0  0  0  0  0  0
    4.7009   -2.6575    0.8101 H   0  0  0  0  0  0
    3.7224   -0.8317   -0.4888 H   0  0  0  0  0  0
    7.4538    0.9852    0.6359 H   0  0  0  0  0  0
    7.5330   -4.2598   -1.5933 H   0  0  0  0  0  0
    8.6532   -5.1955   -0.6536 H   0  0  0  0  0  0
    4.4946   -5.1078    0.3217 H   0  0  0  0  0  0
    5.0929   -4.2595   -1.0731 H   0  0  0  0  0  0
    3.7663    2.8933    1.6949 H   0  0  0  0  0  0
    1.6395   -0.9001    1.3328 H   0  0  0  0  0  0
    7.8124  -10.5838   -0.2884 H   0  0  0  0  0  0
    7.6169   -9.3018   -1.4768 H   0  0  0  0  0  0
    6.3741   -9.5842   -0.2637 H   0  0  0  0  0  0
    6.8585   -8.9538    2.2420 H   0  0  0  0  0  0
    8.3902   -8.1930    2.6579 H   0  0  0  0  0  0
    8.3286   -9.9025    2.2496 H   0  0  0  0  0  0
   10.0829   -9.6474    0.4286 H   0  0  0  0  0  0
   10.2358   -7.9530    0.8768 H   0  0  0  0  0  0
    9.9153   -8.3947   -0.7951 H   0  0  0  0  0  0
   -0.3799   -1.9597    1.7290 H   0  0  0  0  0  0
   -2.5153    1.5502    0.4692 H   0  0  0  0  0  0
   -2.5043   -3.0920    2.1576 H   0  0  0  0  0  0
   -4.6329    0.4109    0.9003 H   0  0  0  0  0  0
  1  2  2  0  0  0
  1  3  2  0  0  0
  1  4  1  0  0  0
  1  5  1  0  0  0
  4  6  1  0  0  0
  4  7  1  0  0  0
  5  8  2  0  0  0
  5  9  1  0  0  0
  6 10  1  0  0  0
  6 41  1  0  0  0
  6 42  1  0  0  0
  7 11  1  0  0  0
  7 43  1  0  0  0
  7 44  1  0  0  0
  8 12  1  0  0  0
  8 45  1  0  0  0
  9 13  2  0  0  0
  9 46  1  0  0  0
 10 14  1  0  0  0
 10 47  1  0  0  0
 10 48  1  0  0  0
 11 14  1  0  0  0
 11 49  1  0  0  0
 11 50  1  0  0  0
 12 15  1  0  0  0
 12 16  2  0  0  0
 13 17  1  0  0  0
 13 16  1  0  0  0
 14 18  1  0  0  0
 15 19  1  0  0  0
 15 20  1  0  0  0
 16 51  1  0  0  0
 17 21  2  0  0  0
 17 22  1  0  0  0
 18 23  2  0  0  0
 18 24  1  0  0  0
 19 25  2  0  0  0
 20 26  2  0  0  0
 20 52  1  0  0  0
 24 27  1  0  0  0
 25 26  1  0  0  0
 26 28  1  0  0  0
 27 29  1  0  0  0
 27 30  1  0  0  0
 27 31  1  0  0  0
 28 32  2  0  0  0
 28 33  1  0  0  0
 29 53  1  0  0  0
 29 54  1  0  0  0
 29 55  1  0  0  0
 30 56  1  0  0  0
 30 57  1  0  0  0
 30 58  1  0  0  0
 31 59  1  0  0  0
 31 60  1  0  0  0
 31 61  1  0  0  0
 32 34  1  0  0  0
 32 62  1  0  0  0
 33 35  2  0  0  0
 33 63  1  0  0  0
 34 36  2  0  0  0
 34 64  1  0  0  0
 35 36  1  0  0  0
 35 65  1  0  0  0
 36 37  1  0  0  0
 37 38  1  0  0  0
 37 39  1  0  0  0
 37 40  1  0  0  0
M  CHG  1  22  -1
M  END
> <i_epik_Tot_Q>
-1

> <i_epik_Tot_abs_Q>
1

> <i_lp_mmshare_version>
62121

> <i_m_Source_File_Index>
14

> <i_phase_Input_Structure_Number>
21

> <i_phase_Reference_Structure>
41

> <i_phase_Structure_Number>
21

> <Molecule Name>
32

> <Rotatable Bonds>
7

> <i_f3d_flags>
0

> <b_lp_Chiralities_Consistent>
1

> <r_canvas_IC50_human_P2Y14R,_nM>
502000

> <r_canvas_pIC50>
3.29929628285498

> <r_epik_Charging_Adjusted_Penalty>
6.50349587204969e-05

> <r_epik_Ionization_Penalty>
  0.0001

> <r_epik_Ionization_Penalty_Charging>
  0.0001

> <r_epik_Ionization_Penalty_Neutral>
  0.0000

> <r_epik_State_Penalty>
  0.0000

> <r_lp_Energy>
43.317872

> <r_lp_tautomer_probability>
1

> <r_phase_Similarity_to_Reference>
0.5999705856537

> <s_canvas_CHEMBLID>
CHEMBL5083619

> <s_canvas_Compound>
14

> <s_canvas_Paper>
Yu2018

> <s_epik_Chemistry_Notes>
This compound has an ester and may undergo hydrolysis at high or low pH.

> <s_epik_cmdline>
J2VwaWtfcHl0aG9uJywgJy1waCcsICc3LjAnLCAnLXRuJywgJzgnLCAnLW1hJywgJzUwMCcsICctaW1hZScsICc8aW5maWxlLm1hZT4nLCAnLW9tYWUnLCAnPG91dGZpbGUubWFlPic=

> <s_epik_input>
W0NIM11DKFtDSDNdKShbQ0gzXSlPQyg9TylOKFtDSDJdW0NIMl0xKVtDSDJdW0NIMl1OMVMoPU8pKD1PKWMyW2NIXWMoW2NIXWMoW2NIXTIpQyg9TylbT0hdKS1uM25uYyhbY0hdMyktYzRbY0hdW2NIXWMoQyhGKShGKUYpW2NIXVtjSF00

> <s_lp_Force_Field>
S-OPLS

> <s_lp_Variant>
32-1

> <s_m_Source_File>
database-aligned.sdf

> <s_m_Source_Path>
/data/matteo/P2Y14-antagonists-piperidineDerivatives-Wen2023/14052024-optimized-alignment

> <s_m_entry_id>
14

> <s_m_entry_name>
database-aligned.14

> <s_m_job_name>
align_ligands_1

> <s_phase_Alignment_Method>
snapped core

> <s_phase_Alignment_Reason>


> <s_phase_Core_SMARTS>
a1aaaaa1-a2aa(aa2)-a3aaaaa3

$$$$
33
                    3D
 Schrodinger Suite 2023-2.
 51 54  0  0  1  0            999 V2000
    6.5950   -1.3450   -0.8225 S   0  0  0  0  0  0
    7.9315   -0.8242   -1.1515 O   0  0  0  0  0  0
    5.7445   -1.9020   -1.8860 O   0  0  0  0  0  0
    6.7800   -2.5561    0.4133 N   0  0  0  0  0  0
    5.6959   -0.0428    0.0147 C   0  0  0  0  0  0
    5.5758   -3.3050    0.8314 C   0  0  0  0  0  0
    7.9832   -3.4093    0.3524 C   0  0  0  0  0  0
    4.2688   -0.0378   -0.0014 C   0  0  0  0  0  0
    6.3738    1.0063    0.6388 C   0  0  0  0  0  0
    5.3524   -4.5495   -0.0550 C   0  0  0  0  0  0
    7.7383   -4.6087   -0.5801 C   0  0  0  0  0  0
    3.5729    1.0430    0.6162 C   0  0  0  0  0  0
    5.7140    2.0823    1.2549 C   0  0  0  0  0  0
    6.5723   -5.3593   -0.0921 N   0  3  0  0  0  0
    2.1133    1.0787    0.6116 N   0  0  0  0  0  0
    4.3095    2.0826    1.2307 C   0  0  0  0  0  0
    6.4824    3.1926    1.9177 C   0  0  0  0  0  0
    1.4087    2.1505    0.2272 N   0  0  0  0  0  0
    1.2788    0.0570    0.9868 C   0  0  0  0  0  0
    7.7329    3.1460    1.9172 O   0  0  0  0  0  0
    5.8483    4.1301    2.4513 O   0  5  0  0  0  0
    0.0745    1.8131    0.3572 N   0  0  0  0  0  0
    0.0041    0.5726    0.8072 C   0  0  0  0  0  0
   -1.2977   -0.1255    1.0677 C   0  0  0  0  0  0
   -2.4987    0.5343    0.8355 C   0  0  0  0  0  0
   -1.3030   -1.4321    1.5414 C   0  0  0  0  0  0
   -3.7049   -0.1126    1.0769 C   0  0  0  0  0  0
   -2.5092   -2.0790    1.7828 C   0  0  0  0  0  0
   -3.7102   -1.4192    1.5505 C   0  0  0  0  0  0
   -5.0120   -2.1173    1.8111 C   0  0  0  0  0  0
   -4.8466   -3.4241    1.6134 F   0  0  0  0  0  0
   -5.9312   -1.6407    0.9732 F   0  0  0  0  0  0
   -5.3787   -1.8881    3.0709 F   0  0  0  0  0  0
    5.7042   -3.6127    1.8699 H   0  0  0  0  0  0
    4.7007   -2.6575    0.8103 H   0  0  0  0  0  0
    8.8468   -2.8323    0.0232 H   0  0  0  0  0  0
    8.2170   -3.7598    1.3586 H   0  0  0  0  0  0
    3.7218   -0.8303   -0.4902 H   0  0  0  0  0  0
    7.4538    0.9860    0.6355 H   0  0  0  0  0  0
    4.5348   -5.1528    0.3398 H   0  0  0  0  0  0
    5.0739   -4.2662   -1.0700 H   0  0  0  0  0  0
    7.5674   -4.2787   -1.6058 H   0  0  0  0  0  0
    8.6084   -5.2652   -0.5914 H   0  0  0  0  0  0
    6.7701   -5.6896    0.8415 H   0  0  0  0  0  0
    3.7661    2.8932    1.6949 H   0  0  0  0  0  0
    1.6385   -0.8998    1.3341 H   0  0  0  0  0  0
   -2.5154    1.5503    0.4693 H   0  0  0  0  0  0
   -0.3802   -1.9596    1.7296 H   0  0  0  0  0  0
   -4.6331    0.4104    0.8996 H   0  0  0  0  0  0
   -2.5037   -3.0920    2.1573 H   0  0  0  0  0  0
    6.4186   -6.1550   -0.6950 H   0  0  0  0  0  0
  1  2  2  0  0  0
  1  3  2  0  0  0
  1  4  1  0  0  0
  1  5  1  0  0  0
  4  6  1  0  0  0
  4  7  1  0  0  0
  5  8  2  0  0  0
  5  9  1  0  0  0
  6 10  1  0  0  0
  6 34  1  0  0  0
  6 35  1  0  0  0
  7 11  1  0  0  0
  7 36  1  0  0  0
  7 37  1  0  0  0
  8 12  1  0  0  0
  8 38  1  0  0  0
  9 13  2  0  0  0
  9 39  1  0  0  0
 10 14  1  0  0  0
 10 40  1  0  0  0
 10 41  1  0  0  0
 11 14  1  0  0  0
 11 42  1  0  0  0
 11 43  1  0  0  0
 12 15  1  0  0  0
 12 16  2  0  0  0
 13 17  1  0  0  0
 13 16  1  0  0  0
 14 44  1  0  0  0
 14 51  1  0  0  0
 15 18  1  0  0  0
 15 19  1  0  0  0
 16 45  1  0  0  0
 17 20  2  0  0  0
 17 21  1  0  0  0
 18 22  2  0  0  0
 19 23  2  0  0  0
 19 46  1  0  0  0
 22 23  1  0  0  0
 23 24  1  0  0  0
 24 25  2  0  0  0
 24 26  1  0  0  0
 25 27  1  0  0  0
 25 47  1  0  0  0
 26 28  2  0  0  0
 26 48  1  0  0  0
 27 29  2  0  0  0
 27 49  1  0  0  0
 28 29  1  0  0  0
 28 50  1  0  0  0
 29 30  1  0  0  0
 30 31  1  0  0  0
 30 32  1  0  0  0
 30 33  1  0  0  0
M  CHG  2  14   1  21  -1
M  END
> <i_epik_Tot_Q>
0

> <i_epik_Tot_abs_Q>
2

> <i_lp_mmshare_version>
62121

> <i_m_Source_File_Index>
15

> <i_phase_Input_Structure_Number>
22

> <i_phase_Reference_Structure>
21

> <i_phase_Structure_Number>
22

> <Molecule Name>
33

> <Rotatable Bonds>
5

> <i_f3d_flags>
0

> <b_lp_Chiralities_Consistent>
1

> <r_canvas_IC50_human_P2Y14R,_nM>
1640

> <r_canvas_pIC50>
5.7851561519523

> <r_epik_Charging_Adjusted_Penalty>
0.35177565178004

> <r_epik_Ionization_Penalty>
  0.1759

> <r_epik_Ionization_Penalty_Charging>
  0.1759

> <r_epik_Ionization_Penalty_Neutral>
  0.0000

> <r_epik_State_Penalty>
  0.1759

> <r_lp_Energy>
39.346716

> <r_lp_tautomer_probability>
1

> <r_phase_Similarity_to_Reference>
0.812380138581852

> <s_canvas_CHEMBLID>
CHEMBL5081827

> <s_canvas_Compound>
15

> <s_canvas_Paper>
Yu2018

> <s_epik_cmdline>
J2VwaWtfcHl0aG9uJywgJy1waCcsICc3LjAnLCAnLXRuJywgJzgnLCAnLW1hJywgJzUwMCcsICctaW1hZScsICc8aW5maWxlLm1hZT4nLCAnLW9tYWUnLCAnPG91dGZpbGUubWFlPic=

> <s_epik_input>
W0NIMl0xW0NIMl1bTkhdW0NIMl1bQ0gyXU4xUyg9TykoPU8pYzJbY0hdYyhbY0hdYyhbY0hdMilDKD1PKVtPSF0pLW4zbm5jKFtjSF0zKS1jNFtjSF1bY0hdYyhDKEYpKEYpRilbY0hdW2NIXTQ=

> <s_lp_Force_Field>
S-OPLS

> <s_lp_Variant>
33-1

> <s_m_Source_File>
database-aligned.sdf

> <s_m_Source_Path>
/data/matteo/P2Y14-antagonists-piperidineDerivatives-Wen2023/14052024-optimized-alignment

> <s_m_entry_id>
15

> <s_m_entry_name>
database-aligned.15

> <s_m_job_name>
align_ligands_1

> <s_phase_Alignment_Method>
snapped core

> <s_phase_Alignment_Reason>


> <s_phase_Core_SMARTS>
a1aaaaa1-a2aa(aa2)-a3aa(aaa3)A(=A)(=A)A4AA[A]AA4

$$$$
34
                    3D
 Schrodinger Suite 2023-2.
 48 51  0  0  1  0            999 V2000
    8.8812   -4.5309   -2.5491 S   0  0  0  0  0  0
    9.6402   -5.2179   -1.4928 O   0  0  0  0  0  0
    9.5585   -4.0236   -3.7524 O   0  0  0  0  0  0
    7.6327   -5.5980   -3.0608 N   0  0  0  0  0  0
    7.9469   -3.2050   -1.7964 C   0  0  0  0  0  0
    7.5469   -2.1010   -2.5562 C   0  0  0  0  0  0
    7.6134   -3.2639   -0.4389 C   0  0  0  0  0  0
    6.8196   -1.0713   -1.9653 C   0  0  0  0  0  0
    6.8885   -2.2318    0.1496 C   0  0  0  0  0  0
    6.4845   -1.1328   -0.6109 C   0  0  0  0  0  0
    5.6959   -0.0428    0.0147 C   0  0  0  0  0  0
    4.2688   -0.0378   -0.0014 C   0  0  0  0  0  0
    6.3738    1.0063    0.6388 C   0  0  0  0  0  0
    3.5729    1.0430    0.6162 C   0  0  0  0  0  0
    5.7140    2.0823    1.2549 C   0  0  0  0  0  0
    2.1133    1.0787    0.6116 N   0  0  0  0  0  0
    4.3095    2.0826    1.2307 C   0  0  0  0  0  0
    6.4824    3.1926    1.9177 C   0  0  0  0  0  0
    1.4087    2.1505    0.2272 N   0  0  0  0  0  0
    1.2788    0.0570    0.9868 C   0  0  0  0  0  0
    7.7329    3.1460    1.9172 O   0  0  0  0  0  0
    5.8483    4.1301    2.4513 O   0  5  0  0  0  0
    0.0745    1.8131    0.3572 N   0  0  0  0  0  0
    0.0041    0.5726    0.8072 C   0  0  0  0  0  0
   -1.2977   -0.1255    1.0677 C   0  0  0  0  0  0
   -2.4987    0.5343    0.8355 C   0  0  0  0  0  0
   -1.3030   -1.4321    1.5414 C   0  0  0  0  0  0
   -3.7049   -0.1126    1.0769 C   0  0  0  0  0  0
   -2.5092   -2.0790    1.7828 C   0  0  0  0  0  0
   -3.7102   -1.4192    1.5505 C   0  0  0  0  0  0
   -5.0120   -2.1173    1.8111 C   0  0  0  0  0  0
   -4.8466   -3.4241    1.6134 F   0  0  0  0  0  0
   -5.9312   -1.6407    0.9732 F   0  0  0  0  0  0
   -5.3787   -1.8881    3.0709 F   0  0  0  0  0  0
    7.9923   -6.3060   -3.7006 H   0  0  0  0  0  0
    7.1616   -6.0262   -2.2641 H   0  0  0  0  0  0
    7.7972   -2.0436   -3.6052 H   0  0  0  0  0  0
    7.9154   -4.1103    0.1599 H   0  0  0  0  0  0
    6.5115   -0.2238   -2.5603 H   0  0  0  0  0  0
    6.6342   -2.2864    1.1982 H   0  0  0  0  0  0
    3.7253   -0.8396   -0.4796 H   0  0  0  0  0  0
    7.4543    0.9792    0.6401 H   0  0  0  0  0  0
    3.7667    2.8936    1.6950 H   0  0  0  0  0  0
    1.6394   -0.8998    1.3336 H   0  0  0  0  0  0
   -2.5151    1.5503    0.4691 H   0  0  0  0  0  0
   -0.3799   -1.9596    1.7291 H   0  0  0  0  0  0
   -4.6333    0.4102    0.9000 H   0  0  0  0  0  0
   -2.5038   -3.0920    2.1573 H   0  0  0  0  0  0
  1  2  2  0  0  0
  1  3  2  0  0  0
  1  4  1  0  0  0
  1  5  1  0  0  0
  4 35  1  0  0  0
  4 36  1  0  0  0
  5  6  2  0  0  0
  5  7  1  0  0  0
  6  8  1  0  0  0
  6 37  1  0  0  0
  7  9  2  0  0  0
  7 38  1  0  0  0
  8 10  2  0  0  0
  8 39  1  0  0  0
  9 10  1  0  0  0
  9 40  1  0  0  0
 10 11  1  0  0  0
 11 12  2  0  0  0
 11 13  1  0  0  0
 12 14  1  0  0  0
 12 41  1  0  0  0
 13 15  2  0  0  0
 13 42  1  0  0  0
 14 16  1  0  0  0
 14 17  2  0  0  0
 15 18  1  0  0  0
 15 17  1  0  0  0
 16 19  1  0  0  0
 16 20  1  0  0  0
 17 43  1  0  0  0
 18 21  2  0  0  0
 18 22  1  0  0  0
 19 23  2  0  0  0
 20 24  2  0  0  0
 20 44  1  0  0  0
 23 24  1  0  0  0
 24 25  1  0  0  0
 25 26  2  0  0  0
 25 27  1  0  0  0
 26 28  1  0  0  0
 26 45  1  0  0  0
 27 29  2  0  0  0
 27 46  1  0  0  0
 28 30  2  0  0  0
 28 47  1  0  0  0
 29 30  1  0  0  0
 29 48  1  0  0  0
 30 31  1  0  0  0
 31 32  1  0  0  0
 31 33  1  0  0  0
 31 34  1  0  0  0
M  CHG  1  22  -1
M  END
> <i_epik_Tot_Q>
-1

> <i_epik_Tot_abs_Q>
1

> <i_lp_mmshare_version>
62121

> <i_m_Source_File_Index>
16

> <i_phase_Input_Structure_Number>
23

> <i_phase_Reference_Structure>
41

> <i_phase_Structure_Number>
23

> <Molecule Name>
34

> <Rotatable Bonds>
6

> <i_f3d_flags>
0

> <b_lp_Chiralities_Consistent>
1

> <r_canvas_IC50_human_P2Y14R,_nM>
608

> <r_canvas_pIC50>
6.21609642072727

> <r_epik_Charging_Adjusted_Penalty>
0.000792780353029766

> <r_epik_Ionization_Penalty>
  0.0008

> <r_epik_Ionization_Penalty_Charging>
  0.0002

> <r_epik_Ionization_Penalty_Neutral>
  0.0006

> <r_epik_State_Penalty>
  0.0006

> <r_lp_Energy>
38.006625

> <r_lp_tautomer_probability>
1

> <r_phase_Similarity_to_Reference>
0.761940884392182

> <s_canvas_CHEMBLID>
CHEMBL5081782

> <s_canvas_Compound>
16

> <s_canvas_Paper>
Yu2018

> <s_epik_cmdline>
J2VwaWtfcHl0aG9uJywgJy1waCcsICc3LjAnLCAnLXRuJywgJzgnLCAnLW1hJywgJzUwMCcsICctaW1hZScsICc8aW5maWxlLm1hZT4nLCAnLW9tYWUnLCAnPG91dGZpbGUubWFlPic=

> <s_epik_input>
Tz1TKD1PKShbTkgyXSljMVtjSF1bY0hdYyhbY0hdW2NIXTEpLWMyW2NIXWMoW2NIXWMoW2NIXTIpQyg9TylbT0hdKS1uM25uYyhbY0hdMyktYzRbY0hdW2NIXWMoQyhGKShGKUYpW2NIXVtjSF00

> <s_lp_Force_Field>
S-OPLS

> <s_lp_Variant>
34-1

> <s_m_Source_File>
database-aligned.sdf

> <s_m_Source_Path>
/data/matteo/P2Y14-antagonists-piperidineDerivatives-Wen2023/14052024-optimized-alignment

> <s_m_entry_id>
16

> <s_m_entry_name>
database-aligned.16

> <s_m_job_name>
align_ligands_1

> <s_phase_Alignment_Method>
snapped core

> <s_phase_Alignment_Reason>


> <s_phase_Core_SMARTS>
a1aaaaa1-a2aa(aa2)-a3aaaa(a3)-a4aaaaa4

$$$$
35
                    3D
 Schrodinger Suite 2023-2.
 73 77  0  0  1  0            999 V2000
    8.1921   -1.1612   -0.6053 S   0  0  0  0  0  0
    6.4579   -1.1629   -0.6293 C   0  0  0  0  0  0
    8.2195   -2.6588   -1.4796 C   0  0  0  0  0  0
    5.6959   -0.0428    0.0147 C   0  0  0  0  0  0
    5.9416   -2.2735   -1.2848 C   0  0  0  0  0  0
    6.9425   -3.1234   -1.7679 C   0  0  0  0  0  0
    9.5290   -3.2980   -1.8354 C   0  0  0  0  0  0
    4.2688   -0.0378   -0.0014 C   0  0  0  0  0  0
    6.3738    1.0063    0.6388 C   0  0  0  0  0  0
    9.6046   -4.6234   -1.2279 N   0  3  0  0  0  0
    3.5729    1.0430    0.6162 C   0  0  0  0  0  0
    5.7140    2.0823    1.2549 C   0  0  0  0  0  0
   10.9698   -5.2625   -1.5652 C   0  0  0  0  0  0
    8.4217   -5.4822   -1.7274 C   0  0  0  0  0  0
    2.1133    1.0787    0.6116 N   0  0  0  0  0  0
    4.3095    2.0826    1.2307 C   0  0  0  0  0  0
    6.4824    3.1926    1.9177 C   0  0  0  0  0  0
   11.0339   -5.6122   -3.0688 C   0  0  0  0  0  0
    8.6081   -5.8213   -3.2232 C   0  0  0  0  0  0
    1.4087    2.1505    0.2272 N   0  0  0  0  0  0
    1.2788    0.0570    0.9868 C   0  0  0  0  0  0
    7.7329    3.1460    1.9172 O   0  0  0  0  0  0
    5.8483    4.1301    2.4513 O   0  5  0  0  0  0
    9.9058   -6.4588   -3.4729 N   0  0  0  0  0  0
    0.0745    1.8131    0.3572 N   0  0  0  0  0  0
    0.0041    0.5726    0.8072 C   0  0  0  0  0  0
   10.0263   -6.8150   -4.8836 C   0  0  0  0  0  0
   -1.2977   -0.1255    1.0677 C   0  0  0  0  0  0
   10.9752   -7.3602   -5.4359 O   0  0  0  0  0  0
    8.8959   -6.4463   -5.5382 O   0  0  0  0  0  0
   -1.3030   -1.4321    1.5414 C   0  0  0  0  0  0
   -2.4987    0.5343    0.8355 C   0  0  0  0  0  0
    9.0282   -6.7904   -6.8681 C   0  0  0  0  0  0
   -2.5092   -2.0790    1.7828 C   0  0  0  0  0  0
   -3.7049   -0.1126    1.0769 C   0  0  0  0  0  0
    9.2284   -8.3145   -6.9325 C   0  0  0  0  0  0
   10.2523   -6.0392   -7.4194 C   0  0  0  0  0  0
    7.7364   -6.3627   -7.5859 C   0  0  0  0  0  0
   -3.7102   -1.4192    1.5505 C   0  0  0  0  0  0
   -5.0120   -2.1173    1.8111 C   0  0  0  0  0  0
   -4.8466   -3.4241    1.6134 F   0  0  0  0  0  0
   -5.9312   -1.6407    0.9732 F   0  0  0  0  0  0
   -5.3787   -1.8881    3.0709 F   0  0  0  0  0  0
    4.8829   -2.4611   -1.4085 H   0  0  0  0  0  0
    6.7431   -4.0409   -2.3064 H   0  0  0  0  0  0
    9.6059   -3.3899   -2.9188 H   0  0  0  0  0  0
   10.3472   -2.6809   -1.4641 H   0  0  0  0  0  0
    3.7384   -0.8502   -0.4759 H   0  0  0  0  0  0
    7.4540    0.9959    0.6427 H   0  0  0  0  0  0
   11.7458   -4.5534   -1.2697 H   0  0  0  0  0  0
   11.0725   -6.1510   -0.9385 H   0  0  0  0  0  0
    8.3940   -6.3820   -1.1091 H   0  0  0  0  0  0
    7.5053   -4.9190   -1.5397 H   0  0  0  0  0  0
    3.7892    2.9038    1.7022 H   0  0  0  0  0  0
   11.0683   -4.6992   -3.6704 H   0  0  0  0  0  0
   11.9741   -6.1291   -3.2791 H   0  0  0  0  0  0
    7.8038   -6.4887   -3.5446 H   0  0  0  0  0  0
    8.4946   -4.9211   -3.8343 H   0  0  0  0  0  0
    1.6404   -0.9005    1.3313 H   0  0  0  0  0  0
   -0.3805   -1.9618    1.7283 H   0  0  0  0  0  0
   -2.5138    1.5494    0.4677 H   0  0  0  0  0  0
   -2.4965   -3.0940    2.1506 H   0  0  0  0  0  0
   -4.6369    0.4023    0.8953 H   0  0  0  0  0  0
    9.3408   -8.6594   -7.9612 H   0  0  0  0  0  0
    8.3799   -8.8435   -6.4970 H   0  0  0  0  0  0
   10.1189   -8.6198   -6.3819 H   0  0  0  0  0  0
   11.1590   -6.3086   -6.8765 H   0  0  0  0  0  0
   10.1278   -4.9596   -7.3282 H   0  0  0  0  0  0
   10.4182   -6.2653   -8.4735 H   0  0  0  0  0  0
    7.7709   -6.6057   -8.6487 H   0  0  0  0  0  0
    7.5721   -5.2882   -7.4973 H   0  0  0  0  0  0
    6.8643   -6.8609   -7.1607 H   0  0  0  0  0  0
    9.5273   -4.4627   -0.2330 H   0  0  0  0  0  0
  1  2  1  0  0  0
  1  3  1  0  0  0
  2  4  1  0  0  0
  2  5  2  0  0  0
  3  6  2  0  0  0
  3  7  1  0  0  0
  4  8  2  0  0  0
  4  9  1  0  0  0
  5  6  1  0  0  0
  5 44  1  0  0  0
  6 45  1  0  0  0
  7 10  1  0  0  0
  7 46  1  0  0  0
  7 47  1  0  0  0
  8 11  1  0  0  0
  8 48  1  0  0  0
  9 12  2  0  0  0
  9 49  1  0  0  0
 10 13  1  0  0  0
 10 14  1  0  0  0
 10 73  1  0  0  0
 11 15  1  0  0  0
 11 16  2  0  0  0
 12 17  1  0  0  0
 12 16  1  0  0  0
 13 18  1  0  0  0
 13 50  1  0  0  0
 13 51  1  0  0  0
 14 19  1  0  0  0
 14 52  1  0  0  0
 14 53  1  0  0  0
 15 20  1  0  0  0
 15 21  1  0  0  0
 16 54  1  0  0  0
 17 22  2  0  0  0
 17 23  1  0  0  0
 18 24  1  0  0  0
 18 55  1  0  0  0
 18 56  1  0  0  0
 19 24  1  0  0  0
 19 57  1  0  0  0
 19 58  1  0  0  0
 20 25  2  0  0  0
 21 26  2  0  0  0
 21 59  1  0  0  0
 24 27  1  0  0  0
 25 26  1  0  0  0
 26 28  1  0  0  0
 27 29  2  0  0  0
 27 30  1  0  0  0
 28 31  2  0  0  0
 28 32  1  0  0  0
 30 33  1  0  0  0
 31 34  1  0  0  0
 31 60  1  0  0  0
 32 35  2  0  0  0
 32 61  1  0  0  0
 33 36  1  0  0  0
 33 37  1  0  0  0
 33 38  1  0  0  0
 34 39  2  0  0  0
 34 62  1  0  0  0
 35 39  1  0  0  0
 35 63  1  0  0  0
 36 64  1  0  0  0
 36 65  1  0  0  0
 36 66  1  0  0  0
 37 67  1  0  0  0
 37 68  1  0  0  0
 37 69  1  0  0  0
 38 70  1  0  0  0
 38 71  1  0  0  0
 38 72  1  0  0  0
 39 40  1  0  0  0
 40 41  1  0  0  0
 40 42  1  0  0  0
 40 43  1  0  0  0
M  CHG  2  10   1  23  -1
M  END
> <i_epik_Tot_Q>
0

> <i_epik_Tot_abs_Q>
2

> <i_lp_mmshare_version>
62121

> <i_m_Source_File_Index>
8

> <i_phase_Input_Structure_Number>
9

> <i_phase_Reference_Structure>
1

> <i_phase_Structure_Number>
9

> <Molecule Name>
35

> <Rotatable Bonds>
9

> <i_f3d_flags>
0

> <b_lp_Chiralities_Consistent>
1

> <r_canvas_IC50_human_P2Y14R,_nM>
67200

> <r_canvas_pIC50>
4.17263072694618

> <r_epik_Charging_Adjusted_Penalty>
0.589380468185486

> <r_epik_Ionization_Penalty>
  0.2948

> <r_epik_Ionization_Penalty_Charging>
  0.2948

> <r_epik_Ionization_Penalty_Neutral>
  0.0000

> <r_epik_State_Penalty>
  0.2946

> <r_lp_Energy>
59.353655

> <r_lp_tautomer_probability>
1

> <r_phase_Similarity_to_Reference>
0.766130578021347

> <s_canvas_CHEMBLID>
CHEMBL5079653

> <s_canvas_Compound>
17

> <s_canvas_Paper>
Yu2018

> <s_epik_Chemistry_Notes>
This compound has an ester and may undergo hydrolysis at high or low pH.

> <s_epik_cmdline>
J2VwaWtfcHl0aG9uJywgJy1waCcsICc3LjAnLCAnLXRuJywgJzgnLCAnLW1hJywgJzUwMCcsICctaW1hZScsICc8aW5maWxlLm1hZT4nLCAnLW9tYWUnLCAnPG91dGZpbGUubWFlPic=

> <s_epik_input>
W0NIM11DKFtDSDNdKShbQ0gzXSlPQyg9TylOKFtDSDJdW0NIMl0xKVtDSDJdW0NIMl1OMVtDSDJdYyhbY0hdW2NIXTIpc2MyLWMzW2NIXWMoW2NIXWMoW2NIXTMpQyg9TylbT0hdKS1uNG5uYyhbY0hdNCktYzVbY0hdW2NIXWMoQyhGKShGKUYpW2NIXVtjSF01

> <s_lp_Force_Field>
S-OPLS

> <s_lp_Variant>
35-1

> <s_m_Source_File>
database-not-aligned-realigned.sdf

> <s_m_Source_Path>
/data/matteo/P2Y14-antagonists-piperidineDerivatives-Wen2023/14052024-optimized-alignment

> <s_m_entry_id>
135

> <s_m_entry_name>
database-not-aligned-realigned.8

> <s_m_job_name>
align_ligands_2

> <s_phase_Alignment_Method>
snapped core

> <s_phase_Alignment_Reason>


> <s_phase_Core_SMARTS>
a1aaaaa1-a2aa(aa2)-a3aaaaa3

$$$$
36
                    3D
 Schrodinger Suite 2023-2.
 58 62  0  0  1  0            999 V2000
    5.6071   -2.4630   -1.3999 S   0  0  0  0  0  0
    6.4579   -1.1629   -0.6293 C   0  0  0  0  0  0
    7.1114   -3.2168   -1.8201 C   0  0  0  0  0  0
    5.6959   -0.0428    0.0147 C   0  0  0  0  0  0
    7.8363   -1.3194   -0.7023 C   0  0  0  0  0  0
    8.2076   -2.4864   -1.3790 C   0  0  0  0  0  0
    7.1179   -4.5121   -2.5765 C   0  0  0  0  0  0
    4.2688   -0.0378   -0.0014 C   0  0  0  0  0  0
    6.3738    1.0063    0.6388 C   0  0  0  0  0  0
    8.4965   -4.9352   -2.8053 N   0  0  0  0  0  0
    3.5729    1.0430    0.6162 C   0  0  0  0  0  0
    5.7140    2.0823    1.2549 C   0  0  0  0  0  0
    9.1853   -5.1225   -1.5234 C   0  0  0  0  0  0
    8.5213   -6.1433   -3.6375 C   0  0  0  0  0  0
    2.1133    1.0787    0.6116 N   0  0  0  0  0  0
    4.3095    2.0826    1.2307 C   0  0  0  0  0  0
    6.4824    3.1926    1.9177 C   0  0  0  0  0  0
   10.6655   -5.5154   -1.7277 C   0  0  0  0  0  0
    9.9680   -6.5876   -3.9484 C   0  0  0  0  0  0
    1.4087    2.1505    0.2272 N   0  0  0  0  0  0
    1.2788    0.0570    0.9868 C   0  0  0  0  0  0
    7.7329    3.1460    1.9172 O   0  0  0  0  0  0
    5.8483    4.1301    2.4513 O   0  5  0  0  0  0
   10.7621   -6.7619   -2.6349 N   0  3  0  0  0  0
    0.0745    1.8131    0.3572 N   0  0  0  0  0  0
    0.0041    0.5726    0.8072 C   0  0  0  0  0  0
   -1.2977   -0.1255    1.0677 C   0  0  0  0  0  0
   -1.3030   -1.4321    1.5414 C   0  0  0  0  0  0
   -2.4987    0.5343    0.8355 C   0  0  0  0  0  0
   -2.5092   -2.0790    1.7828 C   0  0  0  0  0  0
   -3.7049   -0.1126    1.0769 C   0  0  0  0  0  0
   -3.7102   -1.4192    1.5505 C   0  0  0  0  0  0
   -5.0120   -2.1173    1.8111 C   0  0  0  0  0  0
   -4.8466   -3.4241    1.6134 F   0  0  0  0  0  0
   -5.9312   -1.6407    0.9732 F   0  0  0  0  0  0
   -5.3787   -1.8881    3.0709 F   0  0  0  0  0  0
    8.5449   -0.6171   -0.2827 H   0  0  0  0  0  0
    9.2350   -2.7861   -1.5403 H   0  0  0  0  0  0
    6.5955   -5.2736   -1.9975 H   0  0  0  0  0  0
    6.6160   -4.3760   -3.5345 H   0  0  0  0  0  0
    3.7385   -0.8502   -0.4761 H   0  0  0  0  0  0
    7.4541    0.9951    0.6425 H   0  0  0  0  0  0
    9.1345   -4.1984   -0.9413 H   0  0  0  0  0  0
    8.6732   -5.8731   -0.9143 H   0  0  0  0  0  0
    7.9687   -6.9561   -3.1574 H   0  0  0  0  0  0
    7.9930   -5.9532   -4.5758 H   0  0  0  0  0  0
    3.7892    2.9042    1.7016 H   0  0  0  0  0  0
   11.2320   -4.7187   -2.2146 H   0  0  0  0  0  0
   11.1659   -5.7548   -0.7872 H   0  0  0  0  0  0
   10.0051   -7.5391   -4.4827 H   0  0  0  0  0  0
   10.4988   -5.8458   -4.5489 H   0  0  0  0  0  0
    1.6403   -0.9006    1.3311 H   0  0  0  0  0  0
   11.7292   -6.9781   -2.8343 H   0  0  0  0  0  0
   -0.3798   -1.9599    1.7280 H   0  0  0  0  0  0
   -2.5156    1.5500    0.4684 H   0  0  0  0  0  0
   -2.5034   -3.0930    2.1547 H   0  0  0  0  0  0
   -4.6330    0.4098    0.8974 H   0  0  0  0  0  0
   10.4094   -7.5662   -2.1358 H   0  0  0  0  0  0
  1  2  1  0  0  0
  1  3  1  0  0  0
  2  4  1  0  0  0
  2  5  2  0  0  0
  3  6  2  0  0  0
  3  7  1  0  0  0
  4  8  2  0  0  0
  4  9  1  0  0  0
  5  6  1  0  0  0
  5 37  1  0  0  0
  6 38  1  0  0  0
  7 10  1  0  0  0
  7 39  1  0  0  0
  7 40  1  0  0  0
  8 11  1  0  0  0
  8 41  1  0  0  0
  9 12  2  0  0  0
  9 42  1  0  0  0
 10 13  1  0  0  0
 10 14  1  0  0  0
 11 15  1  0  0  0
 11 16  2  0  0  0
 12 17  1  0  0  0
 12 16  1  0  0  0
 13 18  1  0  0  0
 13 43  1  0  0  0
 13 44  1  0  0  0
 14 19  1  0  0  0
 14 45  1  0  0  0
 14 46  1  0  0  0
 15 20  1  0  0  0
 15 21  1  0  0  0
 16 47  1  0  0  0
 17 22  2  0  0  0
 17 23  1  0  0  0
 18 24  1  0  0  0
 18 48  1  0  0  0
 18 49  1  0  0  0
 19 24  1  0  0  0
 19 50  1  0  0  0
 19 51  1  0  0  0
 20 25  2  0  0  0
 21 26  2  0  0  0
 21 52  1  0  0  0
 24 53  1  0  0  0
 24 58  1  0  0  0
 25 26  1  0  0  0
 26 27  1  0  0  0
 27 28  2  0  0  0
 27 29  1  0  0  0
 28 30  1  0  0  0
 28 54  1  0  0  0
 29 31  2  0  0  0
 29 55  1  0  0  0
 30 32  2  0  0  0
 30 56  1  0  0  0
 31 32  1  0  0  0
 31 57  1  0  0  0
 32 33  1  0  0  0
 33 34  1  0  0  0
 33 35  1  0  0  0
 33 36  1  0  0  0
M  CHG  2  23  -1  24   1
M  END
> <i_epik_Tot_Q>
0

> <i_epik_Tot_abs_Q>
2

> <i_lp_mmshare_version>
62121

> <i_m_Source_File_Index>
9

> <i_phase_Input_Structure_Number>
10

> <i_phase_Reference_Structure>
1

> <i_phase_Structure_Number>
10

> <Molecule Name>
36

> <Rotatable Bonds>
7

> <i_f3d_flags>
0

> <b_lp_Chiralities_Consistent>
1

> <r_canvas_IC50_human_P2Y14R,_nM>
1960

> <r_canvas_pIC50>
5.70774392864352

> <r_epik_Charging_Adjusted_Penalty>
0.156045593165807

> <r_epik_Ionization_Penalty>
  0.0115

> <r_epik_Ionization_Penalty_Charging>
  0.0051

> <r_epik_Ionization_Penalty_Neutral>
  0.0064

> <r_epik_State_Penalty>
  0.1509

> <r_lp_Energy>
63.07449

> <r_lp_tautomer_probability>
1

> <r_phase_Similarity_to_Reference>
0.842105086137928

> <s_canvas_CHEMBLID>
CHEMBL5079515

> <s_canvas_Compound>
18

> <s_canvas_Paper>
Yu2018

> <s_epik_cmdline>
J2VwaWtfcHl0aG9uJywgJy1waCcsICc3LjAnLCAnLXRuJywgJzgnLCAnLW1hJywgJzUwMCcsICctaW1hZScsICc8aW5maWxlLm1hZT4nLCAnLW9tYWUnLCAnPG91dGZpbGUubWFlPic=

> <s_epik_input>
W0NIMl0xW0NIMl1bTkhdW0NIMl1bQ0gyXU4xW0NIMl1jKFtjSF1bY0hdMilzYzItYzNbY0hdYyhbY0hdYyhbY0hdMylDKD1PKVtPSF0pLW40bm5jKFtjSF00KS1jNVtjSF1bY0hdYyhDKEYpKEYpRilbY0hdW2NIXTU=

> <s_lp_Force_Field>
S-OPLS

> <s_lp_Variant>
36-1

> <s_m_Source_File>
database-not-aligned-realigned.sdf

> <s_m_Source_Path>
/data/matteo/P2Y14-antagonists-piperidineDerivatives-Wen2023/14052024-optimized-alignment

> <s_m_entry_id>
136

> <s_m_entry_name>
database-not-aligned-realigned.9

> <s_m_job_name>
align_ligands_2

> <s_phase_Alignment_Method>
snapped core

> <s_phase_Alignment_Reason>


> <s_phase_Core_SMARTS>
a1aaaaa1-a2aa(aa2)-a3aaaaa3

$$$$
38
                    3D
 Schrodinger Suite 2023-2.
 56 59  0  0  1  0            999 V2000
    5.6071   -2.4631   -1.3997 S   0  0  0  0  0  0
    6.4579   -1.1630   -0.6292 C   0  0  0  0  0  0
    7.1114   -3.2170   -1.8198 C   0  0  0  0  0  0
    5.6959   -0.0428    0.0147 C   0  0  0  0  0  0
    7.8363   -1.3195   -0.7022 C   0  0  0  0  0  0
    7.1180   -4.5124   -2.5761 C   0  0  0  0  0  0
    8.2076   -2.4865   -1.3787 C   0  0  0  0  0  0
    4.2688   -0.0378   -0.0014 C   0  0  0  0  0  0
    6.3738    1.0063    0.6388 C   0  0  0  0  0  0
    6.1833   -4.9497   -3.2408 O   0  0  0  0  0  0
    8.2783   -5.1564   -2.4464 N   0  0  0  0  0  0
    3.5729    1.0430    0.6162 C   0  0  0  0  0  0
    5.7140    2.0823    1.2549 C   0  0  0  0  0  0
    8.6073   -6.4417   -3.0558 C   0  0  0  0  0  0
    2.1133    1.0787    0.6116 N   0  0  0  0  0  0
    4.3095    2.0826    1.2307 C   0  0  0  0  0  0
    6.4824    3.1926    1.9177 C   0  0  0  0  0  0
   10.0043   -6.8328   -2.6745 C   0  0  0  0  0  0
    1.4087    2.1505    0.2272 N   0  0  0  0  0  0
    1.2788    0.0570    0.9868 C   0  0  0  0  0  0
    7.7329    3.1460    1.9172 O   0  0  0  0  0  0
    5.8483    4.1301    2.4513 O   0  5  0  0  0  0
   10.9659   -5.7887   -3.1595 C   0  0  0  0  0  0
    0.0745    1.8131    0.3572 N   0  0  0  0  0  0
    0.0041    0.5726    0.8072 C   0  0  0  0  0  0
   12.3256   -6.1694   -2.7884 N   0  3  0  0  0  0
   -1.2977   -0.1255    1.0677 C   0  0  0  0  0  0
   -2.4987    0.5343    0.8355 C   0  0  0  0  0  0
   -1.3030   -1.4321    1.5414 C   0  0  0  0  0  0
   -3.7049   -0.1126    1.0769 C   0  0  0  0  0  0
   -2.5092   -2.0790    1.7828 C   0  0  0  0  0  0
   -3.7102   -1.4192    1.5505 C   0  0  0  0  0  0
   -5.0120   -2.1173    1.8111 C   0  0  0  0  0  0
   -4.8466   -3.4241    1.6134 F   0  0  0  0  0  0
   -5.9312   -1.6407    0.9732 F   0  0  0  0  0  0
   -5.3787   -1.8881    3.0709 F   0  0  0  0  0  0
    8.5449   -0.6171   -0.2827 H   0  0  0  0  0  0
    9.2350   -2.7862   -1.5400 H   0  0  0  0  0  0
    3.7384   -0.8504   -0.4757 H   0  0  0  0  0  0
    7.4539    0.9960    0.6430 H   0  0  0  0  0  0
    9.0714   -4.8338   -1.9107 H   0  0  0  0  0  0
    7.9085   -7.2004   -2.7034 H   0  0  0  0  0  0
    8.5365   -6.3583   -4.1403 H   0  0  0  0  0  0
    3.7895    2.9044    1.7016 H   0  0  0  0  0  0
   10.0750   -6.9162   -1.5900 H   0  0  0  0  0  0
   10.2499   -7.7924   -3.1295 H   0  0  0  0  0  0
    1.6404   -0.9007    1.3312 H   0  0  0  0  0  0
   10.8951   -5.7053   -4.2440 H   0  0  0  0  0  0
   10.7202   -4.8291   -2.7045 H   0  0  0  0  0  0
   12.9731   -5.4664   -3.1149 H   0  0  0  0  0  0
   12.5532   -7.0586   -3.2099 H   0  0  0  0  0  0
   -2.5156    1.5502    0.4690 H   0  0  0  0  0  0
   -0.3797   -1.9596    1.7286 H   0  0  0  0  0  0
   -4.6329    0.4106    0.8996 H   0  0  0  0  0  0
   -2.5032   -3.0921    2.1570 H   0  0  0  0  0  0
   12.3912   -6.2467   -1.7835 H   0  0  0  0  0  0
  1  2  1  0  0  0
  1  3  1  0  0  0
  2  4  1  0  0  0
  2  5  2  0  0  0
  3  6  1  0  0  0
  3  7  2  0  0  0
  4  8  2  0  0  0
  4  9  1  0  0  0
  5  7  1  0  0  0
  5 37  1  0  0  0
  6 10  2  0  0  0
  6 11  1  0  0  0
  7 38  1  0  0  0
  8 12  1  0  0  0
  8 39  1  0  0  0
  9 13  2  0  0  0
  9 40  1  0  0  0
 11 14  1  0  0  0
 11 41  1  0  0  0
 12 15  1  0  0  0
 12 16  2  0  0  0
 13 17  1  0  0  0
 13 16  1  0  0  0
 14 18  1  0  0  0
 14 42  1  0  0  0
 14 43  1  0  0  0
 15 19  1  0  0  0
 15 20  1  0  0  0
 16 44  1  0  0  0
 17 21  2  0  0  0
 17 22  1  0  0  0
 18 23  1  0  0  0
 18 45  1  0  0  0
 18 46  1  0  0  0
 19 24  2  0  0  0
 20 25  2  0  0  0
 20 47  1  0  0  0
 23 26  1  0  0  0
 23 48  1  0  0  0
 23 49  1  0  0  0
 24 25  1  0  0  0
 25 27  1  0  0  0
 26 50  1  0  0  0
 26 51  1  0  0  0
 26 56  1  0  0  0
 27 28  2  0  0  0
 27 29  1  0  0  0
 28 30  1  0  0  0
 28 52  1  0  0  0
 29 31  2  0  0  0
 29 53  1  0  0  0
 30 32  2  0  0  0
 30 54  1  0  0  0
 31 32  1  0  0  0
 31 55  1  0  0  0
 32 33  1  0  0  0
 33 34  1  0  0  0
 33 35  1  0  0  0
 33 36  1  0  0  0
M  CHG  2  22  -1  26   1
M  END
> <i_epik_Tot_Q>
0

> <i_epik_Tot_abs_Q>
2

> <i_lp_mmshare_version>
62121

> <i_m_Source_File_Index>
10

> <i_phase_Input_Structure_Number>
11

> <i_phase_Reference_Structure>
1

> <i_phase_Structure_Number>
11

> <Molecule Name>
38

> <Rotatable Bonds>
9

> <i_f3d_flags>
0

> <b_lp_Chiralities_Consistent>
1

> <r_canvas_IC50_human_P2Y14R,_nM>
169

> <r_canvas_pIC50>
6.77211329538633

> <r_epik_Charging_Adjusted_Penalty>
0.0021920836378919

> <r_epik_Ionization_Penalty>
  0.0012

> <r_epik_Ionization_Penalty_Charging>
  0.0012

> <r_epik_Ionization_Penalty_Neutral>
  0.0000

> <r_epik_State_Penalty>
  0.0010

> <r_lp_Energy>
43.894642

> <r_lp_tautomer_probability>
1

> <r_phase_Similarity_to_Reference>
0.818482462772223

> <s_canvas_CHEMBLID>
CHEMBL5077574

> <s_canvas_Compound>
20

> <s_canvas_Paper>
Yu2018

> <s_epik_cmdline>
J2VwaWtfcHl0aG9uJywgJy1waCcsICc3LjAnLCAnLXRuJywgJzgnLCAnLW1hJywgJzUwMCcsICctaW1hZScsICc8aW5maWxlLm1hZT4nLCAnLW9tYWUnLCAnPG91dGZpbGUubWFlPic=

> <s_epik_input>
W05IMl1bQ0gyXVtDSDJdW0NIMl1bTkhdQyg9TyljKFtjSF1bY0hdMSlzYzEtYzJbY0hdYyhbY0hdYyhbY0hdMilDKD1PKVtPSF0pLW4zbm5jKFtjSF0zKS1jNFtjSF1bY0hdYyhDKEYpKEYpRilbY0hdW2NIXTQ=

> <s_lp_Force_Field>
S-OPLS

> <s_lp_Variant>
38-1

> <s_m_Source_File>
database-not-aligned-realigned.sdf

> <s_m_Source_Path>
/data/matteo/P2Y14-antagonists-piperidineDerivatives-Wen2023/14052024-optimized-alignment

> <s_m_entry_id>
137

> <s_m_entry_name>
database-not-aligned-realigned.10

> <s_m_job_name>
align_ligands_2

> <s_phase_Alignment_Method>
snapped core

> <s_phase_Alignment_Reason>


> <s_phase_Core_SMARTS>
a1aaaaa1-a2aa(aa2)-a3aaaaa3

$$$$
39
                    3D
 Schrodinger Suite 2023-2.
 71 75  0  0  1  0            999 V2000
    8.1921   -1.1616   -0.6047 S   0  0  0  0  0  0
    6.4579   -1.1632   -0.6287 C   0  0  0  0  0  0
    8.2194   -2.6596   -1.4782 C   0  0  0  0  0  0
    5.6959   -0.0428    0.0147 C   0  0  0  0  0  0
    5.9416   -2.2742   -1.2837 C   0  0  0  0  0  0
    9.5289   -3.2990   -1.8337 C   0  0  0  0  0  0
    6.9424   -3.1244   -1.7663 C   0  0  0  0  0  0
    4.2688   -0.0378   -0.0014 C   0  0  0  0  0  0
    6.3738    1.0063    0.6388 C   0  0  0  0  0  0
   10.3919   -2.7630   -2.5352 O   0  0  0  0  0  0
    9.6566   -4.5291   -1.2951 N   0  0  0  0  0  0
    3.5729    1.0430    0.6162 C   0  0  0  0  0  0
    5.7140    2.0823    1.2549 C   0  0  0  0  0  0
    8.5541   -5.1413   -0.5316 C   0  0  0  0  0  0
   10.8279   -5.3939   -1.5385 C   0  0  0  0  0  0
    2.1133    1.0787    0.6116 N   0  0  0  0  0  0
    4.3095    2.0826    1.2307 C   0  0  0  0  0  0
    6.4824    3.1926    1.9177 C   0  0  0  0  0  0
    8.1251   -6.4218   -1.2945 C   0  0  0  0  0  0
   10.3147   -6.6649   -2.2636 C   0  0  0  0  0  0
    1.4087    2.1505    0.2272 N   0  0  0  0  0  0
    1.2788    0.0570    0.9868 C   0  0  0  0  0  0
    7.7329    3.1460    1.9172 O   0  0  0  0  0  0
    5.8483    4.1301    2.4513 O   0  5  0  0  0  0
    9.2515   -7.3385   -1.5079 N   0  0  0  0  0  0
    0.0745    1.8131    0.3572 N   0  0  0  0  0  0
    0.0041    0.5726    0.8072 C   0  0  0  0  0  0
    8.7967   -8.5166   -2.2406 C   0  0  0  0  0  0
   -1.2977   -0.1255    1.0677 C   0  0  0  0  0  0
    7.9243   -9.3105   -1.9069 O   0  0  0  0  0  0
    9.4991   -8.6254   -3.3968 O   0  0  0  0  0  0
   -1.3030   -1.4321    1.5414 C   0  0  0  0  0  0
   -2.4987    0.5343    0.8355 C   0  0  0  0  0  0
    9.0560   -9.7428   -4.0747 C   0  0  0  0  0  0
   -2.5092   -2.0790    1.7828 C   0  0  0  0  0  0
   -3.7049   -0.1126    1.0769 C   0  0  0  0  0  0
    7.5568   -9.5458   -4.3587 C   0  0  0  0  0  0
    9.3003  -10.9603   -3.1665 C   0  0  0  0  0  0
    9.8664   -9.8430   -5.3786 C   0  0  0  0  0  0
   -3.7102   -1.4192    1.5505 C   0  0  0  0  0  0
   -5.0120   -2.1173    1.8111 C   0  0  0  0  0  0
   -4.8466   -3.4241    1.6134 F   0  0  0  0  0  0
   -5.9312   -1.6407    0.9732 F   0  0  0  0  0  0
   -5.3787   -1.8881    3.0709 F   0  0  0  0  0  0
    4.8829   -2.4618   -1.4073 H   0  0  0  0  0  0
    6.7431   -4.0421   -2.3043 H   0  0  0  0  0  0
    3.7388   -0.8507   -0.4754 H   0  0  0  0  0  0
    7.4540    0.9947    0.6437 H   0  0  0  0  0  0
    8.9152   -5.4069    0.4636 H   0  0  0  0  0  0
    7.7019   -4.4721   -0.3936 H   0  0  0  0  0  0
   11.6048   -4.9013   -2.1271 H   0  0  0  0  0  0
   11.2757   -5.6660   -0.5812 H   0  0  0  0  0  0
    3.7893    2.9040    1.7018 H   0  0  0  0  0  0
    7.3457   -6.9377   -0.7302 H   0  0  0  0  0  0
    7.6738   -6.1566   -2.2538 H   0  0  0  0  0  0
    9.9564   -6.4088   -3.2637 H   0  0  0  0  0  0
   11.1442   -7.3591   -2.4119 H   0  0  0  0  0  0
    1.6403   -0.9005    1.3314 H   0  0  0  0  0  0
   -0.3797   -1.9595    1.7288 H   0  0  0  0  0  0
   -2.5156    1.5503    0.4690 H   0  0  0  0  0  0
   -2.5034   -3.0921    2.1572 H   0  0  0  0  0  0
   -4.6328    0.4109    0.8996 H   0  0  0  0  0  0
    7.1369  -10.3970   -4.8962 H   0  0  0  0  0  0
    7.3827   -8.6545   -4.9627 H   0  0  0  0  0  0
    6.9915   -9.4268   -3.4337 H   0  0  0  0  0  0
    8.7625  -10.8638   -2.2226 H   0  0  0  0  0  0
   10.3589  -11.0692   -2.9275 H   0  0  0  0  0  0
    8.9715  -11.8855   -3.6416 H   0  0  0  0  0  0
    9.5671  -10.7097   -5.9693 H   0  0  0  0  0  0
   10.9339   -9.9341   -5.1746 H   0  0  0  0  0  0
    9.7287   -8.9564   -5.9987 H   0  0  0  0  0  0
  1  2  1  0  0  0
  1  3  1  0  0  0
  2  4  1  0  0  0
  2  5  2  0  0  0
  3  6  1  0  0  0
  3  7  2  0  0  0
  4  8  2  0  0  0
  4  9  1  0  0  0
  5  7  1  0  0  0
  5 45  1  0  0  0
  6 10  2  0  0  0
  6 11  1  0  0  0
  7 46  1  0  0  0
  8 12  1  0  0  0
  8 47  1  0  0  0
  9 13  2  0  0  0
  9 48  1  0  0  0
 11 14  1  0  0  0
 11 15  1  0  0  0
 12 16  1  0  0  0
 12 17  2  0  0  0
 13 18  1  0  0  0
 13 17  1  0  0  0
 14 19  1  0  0  0
 14 49  1  0  0  0
 14 50  1  0  0  0
 15 20  1  0  0  0
 15 51  1  0  0  0
 15 52  1  0  0  0
 16 21  1  0  0  0
 16 22  1  0  0  0
 17 53  1  0  0  0
 18 23  2  0  0  0
 18 24  1  0  0  0
 19 25  1  0  0  0
 19 54  1  0  0  0
 19 55  1  0  0  0
 20 25  1  0  0  0
 20 56  1  0  0  0
 20 57  1  0  0  0
 21 26  2  0  0  0
 22 27  2  0  0  0
 22 58  1  0  0  0
 25 28  1  0  0  0
 26 27  1  0  0  0
 27 29  1  0  0  0
 28 30  2  0  0  0
 28 31  1  0  0  0
 29 32  2  0  0  0
 29 33  1  0  0  0
 31 34  1  0  0  0
 32 35  1  0  0  0
 32 59  1  0  0  0
 33 36  2  0  0  0
 33 60  1  0  0  0
 34 37  1  0  0  0
 34 38  1  0  0  0
 34 39  1  0  0  0
 35 40  2  0  0  0
 35 61  1  0  0  0
 36 40  1  0  0  0
 36 62  1  0  0  0
 37 63  1  0  0  0
 37 64  1  0  0  0
 37 65  1  0  0  0
 38 66  1  0  0  0
 38 67  1  0  0  0
 38 68  1  0  0  0
 39 69  1  0  0  0
 39 70  1  0  0  0
 39 71  1  0  0  0
 40 41  1  0  0  0
 41 42  1  0  0  0
 41 43  1  0  0  0
 41 44  1  0  0  0
M  CHG  1  24  -1
M  END
> <i_epik_Tot_Q>
-1

> <i_epik_Tot_abs_Q>
1

> <i_lp_mmshare_version>
62121

> <i_m_Source_File_Index>
11

> <i_phase_Input_Structure_Number>
12

> <i_phase_Reference_Structure>
1

> <i_phase_Structure_Number>
12

> <Molecule Name>
39

> <Rotatable Bonds>
8

> <i_f3d_flags>
0

> <b_lp_Chiralities_Consistent>
1

> <r_canvas_IC50_human_P2Y14R,_nM>
53000

> <r_canvas_pIC50>
4.27572413039921

> <r_epik_Charging_Adjusted_Penalty>
0.000170850126059449

> <r_epik_Ionization_Penalty>
  0.0002

> <r_epik_Ionization_Penalty_Charging>
  0.0002

> <r_epik_Ionization_Penalty_Neutral>
  0.0000

> <r_epik_State_Penalty>
  0.0000

> <r_lp_Energy>
56.613944

> <r_lp_tautomer_probability>
1

> <r_phase_Similarity_to_Reference>
0.745159261244652

> <s_canvas_CHEMBLID>
CHEMBL5076678

> <s_canvas_Compound>
21

> <s_canvas_Paper>
Yu2018

> <s_epik_Chemistry_Notes>
This compound has an ester and may undergo hydrolysis at high or low pH.

> <s_epik_cmdline>
J2VwaWtfcHl0aG9uJywgJy1waCcsICc3LjAnLCAnLXRuJywgJzgnLCAnLW1hJywgJzUwMCcsICctaW1hZScsICc8aW5maWxlLm1hZT4nLCAnLW9tYWUnLCAnPG91dGZpbGUubWFlPic=

> <s_epik_input>
W0NIM11DKFtDSDNdKShbQ0gzXSlPQyg9TylOKFtDSDJdW0NIMl0xKVtDSDJdW0NIMl1OMUMoPU8pYyhbY0hdW2NIXTIpc2MyLWMzW2NIXWMoW2NIXWMoW2NIXTMpQyg9TylbT0hdKS1uNG5uYyhbY0hdNCktYzVbY0hdW2NIXWMoQyhGKShGKUYpW2NIXVtjSF01

> <s_lp_Force_Field>
S-OPLS

> <s_lp_Variant>
39-1

> <s_m_Source_File>
database-not-aligned-realigned.sdf

> <s_m_Source_Path>
/data/matteo/P2Y14-antagonists-piperidineDerivatives-Wen2023/14052024-optimized-alignment

> <s_m_entry_id>
138

> <s_m_entry_name>
database-not-aligned-realigned.11

> <s_m_job_name>
align_ligands_2

> <s_phase_Alignment_Method>
snapped core

> <s_phase_Alignment_Reason>


> <s_phase_Core_SMARTS>
a1aaaaa1-a2aa(aa2)-a3aaaaa3

$$$$
40
                    3D
 Schrodinger Suite 2023-2.
 57 61  0  0  1  0            999 V2000
    8.1921   -1.1612   -0.6054 S   0  0  0  0  0  0
    6.4579   -1.1628   -0.6294 C   0  0  0  0  0  0
    8.2194   -2.6587   -1.4798 C   0  0  0  0  0  0
    5.6959   -0.0428    0.0147 C   0  0  0  0  0  0
    5.9416   -2.2733   -1.2851 C   0  0  0  0  0  0
    9.5290   -3.2978   -1.8357 C   0  0  0  0  0  0
    6.9425   -3.1233   -1.7682 C   0  0  0  0  0  0
    4.2688   -0.0378   -0.0014 C   0  0  0  0  0  0
    6.3738    1.0063    0.6388 C   0  0  0  0  0  0
   10.3912   -2.7614   -2.5365 O   0  0  0  0  0  0
    9.6612   -4.5335   -1.3012 N   0  0  0  0  0  0
    3.5729    1.0430    0.6162 C   0  0  0  0  0  0
    5.7140    2.0823    1.2549 C   0  0  0  0  0  0
    8.5605   -5.1587   -0.5436 C   0  0  0  0  0  0
   10.8403   -5.3885   -1.5487 C   0  0  0  0  0  0
    2.1133    1.0787    0.6116 N   0  0  0  0  0  0
    4.3095    2.0826    1.2307 C   0  0  0  0  0  0
    6.4824    3.1926    1.9177 C   0  0  0  0  0  0
    8.0386   -6.3359   -1.4050 C   0  0  0  0  0  0
   10.3582   -6.5674   -2.4293 C   0  0  0  0  0  0
    1.4087    2.1505    0.2272 N   0  0  0  0  0  0
    1.2788    0.0570    0.9868 C   0  0  0  0  0  0
    7.7329    3.1460    1.9172 O   0  0  0  0  0  0
    5.8483    4.1301    2.4513 O   0  5  0  0  0  0
    9.1994   -7.3100   -1.7210 N   0  3  0  0  0  0
    0.0745    1.8131    0.3572 N   0  0  0  0  0  0
    0.0041    0.5726    0.8072 C   0  0  0  0  0  0
   -1.2977   -0.1255    1.0677 C   0  0  0  0  0  0
   -1.3030   -1.4321    1.5414 C   0  0  0  0  0  0
   -2.4987    0.5343    0.8355 C   0  0  0  0  0  0
   -2.5092   -2.0790    1.7828 C   0  0  0  0  0  0
   -3.7049   -0.1126    1.0769 C   0  0  0  0  0  0
   -3.7102   -1.4192    1.5505 C   0  0  0  0  0  0
   -5.0120   -2.1173    1.8111 C   0  0  0  0  0  0
   -4.8466   -3.4241    1.6134 F   0  0  0  0  0  0
   -5.9312   -1.6407    0.9732 F   0  0  0  0  0  0
   -5.3787   -1.8881    3.0709 F   0  0  0  0  0  0
    4.8829   -2.4610   -1.4088 H   0  0  0  0  0  0
    6.7431   -4.0407   -2.3068 H   0  0  0  0  0  0
    3.7384   -0.8501   -0.4762 H   0  0  0  0  0  0
    7.4541    0.9952    0.6422 H   0  0  0  0  0  0
    8.9303   -5.5217    0.4185 H   0  0  0  0  0  0
    7.7466   -4.4648   -0.3151 H   0  0  0  0  0  0
   11.6534   -4.8510   -2.0443 H   0  0  0  0  0  0
   11.2447   -5.7524   -0.6014 H   0  0  0  0  0  0
    3.7892    2.9043    1.7014 H   0  0  0  0  0  0
    7.2735   -6.9174   -0.8861 H   0  0  0  0  0  0
    7.6290   -6.0073   -2.3633 H   0  0  0  0  0  0
    9.9811   -6.2376   -3.4003 H   0  0  0  0  0  0
   11.1470   -7.3034   -2.5985 H   0  0  0  0  0  0
    1.6403   -0.9007    1.3311 H   0  0  0  0  0  0
    9.5304   -7.7493   -0.8728 H   0  0  0  0  0  0
   -0.3798   -1.9599    1.7280 H   0  0  0  0  0  0
   -2.5156    1.5500    0.4684 H   0  0  0  0  0  0
   -2.5033   -3.0930    2.1547 H   0  0  0  0  0  0
   -4.6330    0.4098    0.8974 H   0  0  0  0  0  0
    8.8688   -8.0725   -2.2980 H   0  0  0  0  0  0
  1  2  1  0  0  0
  1  3  1  0  0  0
  2  4  1  0  0  0
  2  5  2  0  0  0
  3  6  1  0  0  0
  3  7  2  0  0  0
  4  8  2  0  0  0
  4  9  1  0  0  0
  5  7  1  0  0  0
  5 38  1  0  0  0
  6 10  2  0  0  0
  6 11  1  0  0  0
  7 39  1  0  0  0
  8 12  1  0  0  0
  8 40  1  0  0  0
  9 13  2  0  0  0
  9 41  1  0  0  0
 11 14  1  0  0  0
 11 15  1  0  0  0
 12 16  1  0  0  0
 12 17  2  0  0  0
 13 18  1  0  0  0
 13 17  1  0  0  0
 14 19  1  0  0  0
 14 42  1  0  0  0
 14 43  1  0  0  0
 15 20  1  0  0  0
 15 44  1  0  0  0
 15 45  1  0  0  0
 16 21  1  0  0  0
 16 22  1  0  0  0
 17 46  1  0  0  0
 18 23  2  0  0  0
 18 24  1  0  0  0
 19 25  1  0  0  0
 19 47  1  0  0  0
 19 48  1  0  0  0
 20 25  1  0  0  0
 20 49  1  0  0  0
 20 50  1  0  0  0
 21 26  2  0  0  0
 22 27  2  0  0  0
 22 51  1  0  0  0
 25 52  1  0  0  0
 25 57  1  0  0  0
 26 27  1  0  0  0
 27 28  1  0  0  0
 28 29  2  0  0  0
 28 30  1  0  0  0
 29 31  1  0  0  0
 29 53  1  0  0  0
 30 32  2  0  0  0
 30 54  1  0  0  0
 31 33  2  0  0  0
 31 55  1  0  0  0
 32 33  1  0  0  0
 32 56  1  0  0  0
 33 34  1  0  0  0
 34 35  1  0  0  0
 34 36  1  0  0  0
 34 37  1  0  0  0
M  CHG  2  24  -1  25   1
M  END
> <i_epik_Tot_Q>
0

> <i_epik_Tot_abs_Q>
2

> <i_lp_mmshare_version>
62121

> <i_m_Source_File_Index>
12

> <i_phase_Input_Structure_Number>
13

> <i_phase_Reference_Structure>
1

> <i_phase_Structure_Number>
13

> <Molecule Name>
40

> <Rotatable Bonds>
6

> <i_f3d_flags>
0

> <b_lp_Chiralities_Consistent>
1

> <r_canvas_IC50_human_P2Y14R,_nM>
12600

> <r_canvas_pIC50>
4.89962945488244

> <r_epik_Charging_Adjusted_Penalty>
0.291458010609502

> <r_epik_Ionization_Penalty>
  0.1458

> <r_epik_Ionization_Penalty_Charging>
  0.1458

> <r_epik_Ionization_Penalty_Neutral>
  0.0000

> <r_epik_State_Penalty>
  0.1456

> <r_lp_Energy>
62.25856

> <r_lp_tautomer_probability>
1

> <r_phase_Similarity_to_Reference>
0.82316471545906

> <s_canvas_CHEMBLID>
CHEMBL5076127

> <s_canvas_Compound>
22

> <s_canvas_Paper>
Yu2018

> <s_epik_cmdline>
J2VwaWtfcHl0aG9uJywgJy1waCcsICc3LjAnLCAnLXRuJywgJzgnLCAnLW1hJywgJzUwMCcsICctaW1hZScsICc8aW5maWxlLm1hZT4nLCAnLW9tYWUnLCAnPG91dGZpbGUubWFlPic=

> <s_epik_input>
W0NIMl0xW0NIMl1bTkhdW0NIMl1bQ0gyXU4xQyg9TyljKFtjSF1bY0hdMilzYzItYzNbY0hdYyhbY0hdYyhbY0hdMylDKD1PKVtPSF0pLW40bm5jKFtjSF00KS1jNVtjSF1bY0hdYyhDKEYpKEYpRilbY0hdW2NIXTU=

> <s_lp_Force_Field>
S-OPLS

> <s_lp_Variant>
40-1

> <s_m_Source_File>
database-not-aligned-realigned.sdf

> <s_m_Source_Path>
/data/matteo/P2Y14-antagonists-piperidineDerivatives-Wen2023/14052024-optimized-alignment

> <s_m_entry_id>
139

> <s_m_entry_name>
database-not-aligned-realigned.12

> <s_m_job_name>
align_ligands_2

> <s_phase_Alignment_Method>
snapped core

> <s_phase_Alignment_Reason>


> <s_phase_Core_SMARTS>
a1aaaaa1-a2aa(aa2)-a3aaaaa3

$$$$
41
                    3D
 Schrodinger Suite 2023-2.
 56 59  0  0  1  0            999 V2000
   -4.8466   -3.4241    1.6134 F   0  0  0  0  0  0
   -5.0120   -2.1173    1.8111 C   0  0  0  0  0  0
   -5.9312   -1.6407    0.9732 F   0  0  0  0  0  0
   -5.3787   -1.8881    3.0709 F   0  0  0  0  0  0
   -3.7102   -1.4192    1.5505 C   0  0  0  0  0  0
   -3.7049   -0.1126    1.0769 C   0  0  0  0  0  0
   -2.5092   -2.0790    1.7828 C   0  0  0  0  0  0
   -2.4987    0.5343    0.8355 C   0  0  0  0  0  0
   -1.3030   -1.4321    1.5414 C   0  0  0  0  0  0
   -1.2977   -0.1255    1.0677 C   0  0  0  0  0  0
    0.0041    0.5726    0.8072 C   0  0  0  0  0  0
    0.0745    1.8131    0.3572 N   0  0  0  0  0  0
    1.2788    0.0570    0.9868 C   0  0  0  0  0  0
    1.4087    2.1505    0.2272 N   0  0  0  0  0  0
    2.1133    1.0787    0.6116 N   0  0  0  0  0  0
    3.5729    1.0430    0.6162 C   0  0  0  0  0  0
    4.2688   -0.0378   -0.0014 C   0  0  0  0  0  0
    4.3095    2.0826    1.2307 C   0  0  0  0  0  0
    5.6959   -0.0428    0.0147 C   0  0  0  0  0  0
    5.7140    2.0823    1.2549 C   0  0  0  0  0  0
    6.4573   -1.1647   -0.6268 C   0  0  0  0  0  0
    6.3738    1.0063    0.6388 C   0  0  0  0  0  0
    6.4824    3.1926    1.9177 C   0  0  0  0  0  0
    7.8125   -1.0924   -0.5667 O   0  0  0  0  0  0
    6.0740   -2.3141   -1.2995 C   0  0  0  0  0  0
    7.7329    3.1460    1.9172 O   0  0  0  0  0  0
    5.8483    4.1301    2.4513 O   0  5  0  0  0  0
    8.2980   -2.1922   -1.1991 C   0  0  0  0  0  0
    7.2509   -2.9710   -1.6654 C   0  0  0  0  0  0
    9.7906   -2.3286   -1.2584 C   0  0  0  0  0  0
   10.5926   -1.4110   -1.1112 O   0  0  0  0  0  0
   10.1646   -3.5865   -1.4945 N   0  0  0  0  0  0
   11.5430   -4.0535   -1.6109 C   0  0  0  0  0  0
   11.5499   -5.5296   -1.8779 C   0  0  0  0  0  0
   10.8173   -5.8099   -3.1564 C   0  0  0  0  0  0
   10.8240   -7.2466   -3.4163 N   0  3  0  0  0  0
   -4.6333    0.4055    0.8866 H   0  0  0  0  0  0
   -2.5032   -3.0970    2.1439 H   0  0  0  0  0  0
   -2.5139    1.5489    0.4668 H   0  0  0  0  0  0
   -0.3803   -1.9621    1.7269 H   0  0  0  0  0  0
    1.6409   -0.9009    1.3303 H   0  0  0  0  0  0
    3.6911   -0.8262   -0.4615 H   0  0  0  0  0  0
    3.7900    2.9037    1.7035 H   0  0  0  0  0  0
    7.4537    0.9748    0.6405 H   0  0  0  0  0  0
    5.0603   -2.6361   -1.5001 H   0  0  0  0  0  0
    7.3329   -3.9048   -2.2067 H   0  0  0  0  0  0
    9.5401   -4.3700   -1.6216 H   0  0  0  0  0  0
   12.0346   -3.5333   -2.4330 H   0  0  0  0  0  0
   12.0753   -3.8498   -0.6818 H   0  0  0  0  0  0
   12.5789   -5.8783   -1.9648 H   0  0  0  0  0  0
   11.0582   -6.0498   -1.0558 H   0  0  0  0  0  0
    9.7882   -5.4612   -3.0695 H   0  0  0  0  0  0
   11.3089   -5.2897   -3.9785 H   0  0  0  0  0  0
   10.3307   -7.4353   -4.2772 H   0  0  0  0  0  0
   10.3684   -7.7286   -2.6546 H   0  0  0  0  0  0
   11.7775   -7.5697   -3.4968 H   0  0  0  0  0  0
  1  2  1  0  0  0
  2  3  1  0  0  0
  2  4  1  0  0  0
  2  5  1  0  0  0
  5  6  2  0  0  0
  5  7  1  0  0  0
  6  8  1  0  0  0
  6 37  1  0  0  0
  7  9  2  0  0  0
  7 38  1  0  0  0
  8 10  2  0  0  0
  8 39  1  0  0  0
  9 10  1  0  0  0
  9 40  1  0  0  0
 10 11  1  0  0  0
 11 12  1  0  0  0
 11 13  2  0  0  0
 12 14  2  0  0  0
 13 15  1  0  0  0
 13 41  1  0  0  0
 14 15  1  0  0  0
 15 16  1  0  0  0
 16 17  2  0  0  0
 16 18  1  0  0  0
 17 19  1  0  0  0
 17 42  1  0  0  0
 18 20  2  0  0  0
 18 43  1  0  0  0
 19 21  1  0  0  0
 19 22  2  0  0  0
 20 23  1  0  0  0
 20 22  1  0  0  0
 21 24  1  0  0  0
 21 25  2  0  0  0
 22 44  1  0  0  0
 23 26  2  0  0  0
 23 27  1  0  0  0
 24 28  1  0  0  0
 25 29  1  0  0  0
 25 45  1  0  0  0
 28 30  1  0  0  0
 28 29  2  0  0  0
 29 46  1  0  0  0
 30 31  2  0  0  0
 30 32  1  0  0  0
 32 33  1  0  0  0
 32 47  1  0  0  0
 33 34  1  0  0  0
 33 48  1  0  0  0
 33 49  1  0  0  0
 34 35  1  0  0  0
 34 50  1  0  0  0
 34 51  1  0  0  0
 35 36  1  0  0  0
 35 52  1  0  0  0
 35 53  1  0  0  0
 36 54  1  0  0  0
 36 55  1  0  0  0
 36 56  1  0  0  0
M  CHG  2  27  -1  36   1
M  END
> <i_epik_Tot_Q>
0

> <i_epik_Tot_abs_Q>
2

> <i_lp_mmshare_version>
62121

> <i_m_Source_File_Index>
13

> <i_phase_Input_Structure_Number>
14

> <i_phase_Reference_Structure>
1

> <i_phase_Structure_Number>
14

> <Molecule Name>
41

> <Rotatable Bonds>
9

> <i_f3d_flags>
0

> <b_lp_Chiralities_Consistent>
1

> <r_canvas_IC50_human_P2Y14R,_nM>
10900

> <r_canvas_pIC50>
4.96257350205938

> <r_epik_Charging_Adjusted_Penalty>
0.00195358170591668

> <r_epik_Ionization_Penalty>
  0.0011

> <r_epik_Ionization_Penalty_Charging>
  0.0011

> <r_epik_Ionization_Penalty_Neutral>
  0.0000

> <r_epik_State_Penalty>
  0.0009

> <r_lp_Energy>
39.400623

> <r_lp_tautomer_probability>
1

> <r_phase_Similarity_to_Reference>
0.788646254330219

> <s_canvas_CHEMBLID>
CHEMBL5075741

> <s_canvas_Compound>
23

> <s_canvas_Paper>
Yu2018

> <s_epik_cmdline>
J2VwaWtfcHl0aG9uJywgJy1waCcsICc3LjAnLCAnLXRuJywgJzgnLCAnLW1hJywgJzUwMCcsICctaW1hZScsICc8aW5maWxlLm1hZT4nLCAnLW9tYWUnLCAnPG91dGZpbGUubWFlPic=

> <s_epik_input>
RkMoRikoRiljMVtjSF1bY0hdYyhbY0hdW2NIXTEpLWMybm5uKFtjSF0yKS1jM1tjSF1jKFtjSF1jKFtjSF0zKUMoPU8pW09IXSktYzRvYyhbY0hdW2NIXTQpQyg9TylbTkhdW0NIMl1bQ0gyXVtDSDJdW05IMl0=

> <s_lp_Force_Field>
S-OPLS

> <s_lp_Variant>
41-1

> <s_m_Source_File>
database-not-aligned-realigned.sdf

> <s_m_Source_Path>
/data/matteo/P2Y14-antagonists-piperidineDerivatives-Wen2023/14052024-optimized-alignment

> <s_m_entry_id>
140

> <s_m_entry_name>
database-not-aligned-realigned.13

> <s_m_job_name>
align_ligands_2

> <s_phase_Alignment_Method>
snapped core

> <s_phase_Alignment_Reason>


> <s_phase_Core_SMARTS>
a1aaaaa1-a2aa(aa2)-a3aaaaa3

$$$$
42
                    3D
 Schrodinger Suite 2023-2.
 44 47  0  0  1  0            999 V2000
   -4.8466   -3.4241    1.6134 F   0  0  0  0  0  0
   -5.0120   -2.1173    1.8111 C   0  0  0  0  0  0
   -5.9312   -1.6407    0.9732 F   0  0  0  0  0  0
   -5.3787   -1.8881    3.0709 F   0  0  0  0  0  0
   -3.7102   -1.4192    1.5505 C   0  0  0  0  0  0
   -3.7049   -0.1126    1.0769 C   0  0  0  0  0  0
   -2.5092   -2.0790    1.7828 C   0  0  0  0  0  0
   -2.4987    0.5343    0.8355 C   0  0  0  0  0  0
   -1.3030   -1.4321    1.5414 C   0  0  0  0  0  0
   -1.2977   -0.1255    1.0677 C   0  0  0  0  0  0
    0.0041    0.5726    0.8072 C   0  0  0  0  0  0
    0.0745    1.8131    0.3572 N   0  0  0  0  0  0
    1.2788    0.0570    0.9868 C   0  0  0  0  0  0
    1.4087    2.1505    0.2272 N   0  0  0  0  0  0
    2.1133    1.0787    0.6116 N   0  0  0  0  0  0
    3.5729    1.0430    0.6162 C   0  0  0  0  0  0
    4.2688   -0.0378   -0.0014 C   0  0  0  0  0  0
    4.3095    2.0826    1.2307 C   0  0  0  0  0  0
    5.6959   -0.0428    0.0147 C   0  0  0  0  0  0
    5.7140    2.0823    1.2549 C   0  0  0  0  0  0
    6.4765   -1.1525   -0.6250 C   0  0  0  0  0  0
    6.3738    1.0063    0.6388 C   0  0  0  0  0  0
    6.4824    3.1926    1.9177 C   0  0  0  0  0  0
    7.6535   -1.5359   -0.1970 O   0  0  0  0  0  0
    6.0404   -1.8234   -1.6610 C   0  0  0  0  0  0
    7.7329    3.1460    1.9172 O   0  0  0  0  0  0
    5.8483    4.1301    2.4513 O   0  5  0  0  0  0
    8.0283   -2.5573   -1.0314 C   0  0  0  0  0  0
    7.0250   -2.7362   -1.9422 C   0  0  0  0  0  0
    9.3268   -3.2256   -0.8294 C   0  0  0  0  0  0
   10.0731   -2.9029    0.0920 O   0  0  0  0  0  0
    9.6405   -4.1877   -1.7005 N   0  0  0  0  0  0
   -4.6332    0.4102    0.8996 H   0  0  0  0  0  0
   -2.5032   -3.0922    2.1569 H   0  0  0  0  0  0
   -2.5154    1.5503    0.4693 H   0  0  0  0  0  0
   -0.3797   -1.9596    1.7288 H   0  0  0  0  0  0
    1.6409   -0.9003    1.3317 H   0  0  0  0  0  0
    3.6913   -0.8263   -0.4612 H   0  0  0  0  0  0
    3.7894    2.9034    1.7031 H   0  0  0  0  0  0
    7.4542    0.9760    0.6421 H   0  0  0  0  0  0
    5.1056   -1.6784   -2.1820 H   0  0  0  0  0  0
    7.0224   -3.4679   -2.7368 H   0  0  0  0  0  0
    9.0001   -4.4221   -2.4444 H   0  0  0  0  0  0
   10.5199   -4.6758   -1.6120 H   0  0  0  0  0  0
  1  2  1  0  0  0
  2  3  1  0  0  0
  2  4  1  0  0  0
  2  5  1  0  0  0
  5  6  2  0  0  0
  5  7  1  0  0  0
  6  8  1  0  0  0
  6 33  1  0  0  0
  7  9  2  0  0  0
  7 34  1  0  0  0
  8 10  2  0  0  0
  8 35  1  0  0  0
  9 10  1  0  0  0
  9 36  1  0  0  0
 10 11  1  0  0  0
 11 12  1  0  0  0
 11 13  2  0  0  0
 12 14  2  0  0  0
 13 15  1  0  0  0
 13 37  1  0  0  0
 14 15  1  0  0  0
 15 16  1  0  0  0
 16 17  2  0  0  0
 16 18  1  0  0  0
 17 19  1  0  0  0
 17 38  1  0  0  0
 18 20  2  0  0  0
 18 39  1  0  0  0
 19 21  1  0  0  0
 19 22  2  0  0  0
 20 23  1  0  0  0
 20 22  1  0  0  0
 21 24  1  0  0  0
 21 25  2  0  0  0
 22 40  1  0  0  0
 23 26  2  0  0  0
 23 27  1  0  0  0
 24 28  1  0  0  0
 25 29  1  0  0  0
 25 41  1  0  0  0
 28 30  1  0  0  0
 28 29  2  0  0  0
 29 42  1  0  0  0
 30 31  2  0  0  0
 30 32  1  0  0  0
 32 43  1  0  0  0
 32 44  1  0  0  0
M  CHG  1  27  -1
M  END
> <i_epik_Tot_Q>
-1

> <i_epik_Tot_abs_Q>
1

> <i_lp_mmshare_version>
62121

> <i_m_Source_File_Index>
14

> <i_phase_Input_Structure_Number>
15

> <i_phase_Reference_Structure>
1

> <i_phase_Structure_Number>
15

> <Molecule Name>
42

> <Rotatable Bonds>
6

> <i_f3d_flags>
0

> <b_lp_Chiralities_Consistent>
1

> <r_canvas_IC50_human_P2Y14R,_nM>
3110

> <r_canvas_pIC50>
5.50723961097316

> <r_epik_Charging_Adjusted_Penalty>
0.000183067320825759

> <r_epik_Ionization_Penalty>
  0.0002

> <r_epik_Ionization_Penalty_Charging>
  0.0002

> <r_epik_Ionization_Penalty_Neutral>
  0.0000

> <r_epik_State_Penalty>
  0.0000

> <r_lp_Energy>
33.517388

> <r_lp_tautomer_probability>
1

> <r_phase_Similarity_to_Reference>
0.743749940080743

> <s_canvas_CHEMBLID>
CHEMBL5074947

> <s_canvas_Compound>
24

> <s_canvas_Paper>
Yu2018

> <s_epik_cmdline>
J2VwaWtfcHl0aG9uJywgJy1waCcsICc3LjAnLCAnLXRuJywgJzgnLCAnLW1hJywgJzUwMCcsICctaW1hZScsICc8aW5maWxlLm1hZT4nLCAnLW9tYWUnLCAnPG91dGZpbGUubWFlPic=

> <s_epik_input>
RkMoRikoRiljMVtjSF1bY0hdYyhbY0hdW2NIXTEpLWMybm5uKFtjSF0yKS1jM1tjSF1jKFtjSF1jKFtjSF0zKUMoPU8pW09IXSktYzRvYyhbY0hdW2NIXTQpQyg9TylbTkgyXQ==

> <s_lp_Force_Field>
S-OPLS

> <s_lp_Variant>
42-1

> <s_m_Source_File>
database-not-aligned-realigned.sdf

> <s_m_Source_Path>
/data/matteo/P2Y14-antagonists-piperidineDerivatives-Wen2023/14052024-optimized-alignment

> <s_m_entry_id>
141

> <s_m_entry_name>
database-not-aligned-realigned.14

> <s_m_job_name>
align_ligands_2

> <s_phase_Alignment_Method>
snapped core

> <s_phase_Alignment_Reason>


> <s_phase_Core_SMARTS>
a1aaaaa1-a2aa(aa2)-a3aaaaa3

$$$$
43
                    3D
 Schrodinger Suite 2023-2.
 56 59  0  0  1  0            999 V2000
    5.6071   -2.4629   -1.4001 S   0  0  0  0  0  0
    6.4579   -1.1628   -0.6294 C   0  0  0  0  0  0
    7.1114   -3.2167   -1.8203 C   0  0  0  0  0  0
    5.6959   -0.0428    0.0147 C   0  0  0  0  0  0
    7.8363   -1.3193   -0.7024 C   0  0  0  0  0  0
    8.2076   -2.4863   -1.3791 C   0  0  0  0  0  0
    4.2688   -0.0378   -0.0014 C   0  0  0  0  0  0
    6.3738    1.0063    0.6388 C   0  0  0  0  0  0
    9.6315   -2.9016   -1.6027 C   0  0  0  0  0  0
    3.5729    1.0430    0.6162 C   0  0  0  0  0  0
    5.7140    2.0823    1.2549 C   0  0  0  0  0  0
   10.6042   -2.1548   -1.5505 O   0  0  0  0  0  0
    9.7318   -4.2037   -1.8717 N   0  0  0  0  0  0
    2.1133    1.0787    0.6116 N   0  0  0  0  0  0
    4.3095    2.0826    1.2307 C   0  0  0  0  0  0
    6.4824    3.1926    1.9177 C   0  0  0  0  0  0
   10.9752   -4.9213   -2.1375 C   0  0  0  0  0  0
    1.4087    2.1505    0.2272 N   0  0  0  0  0  0
    1.2788    0.0570    0.9868 C   0  0  0  0  0  0
    7.7329    3.1460    1.9172 O   0  0  0  0  0  0
    5.8483    4.1301    2.4513 O   0  5  0  0  0  0
   10.9184   -5.5295   -3.5075 C   0  0  0  0  0  0
    0.0745    1.8131    0.3572 N   0  0  0  0  0  0
    0.0041    0.5726    0.8072 C   0  0  0  0  0  0
    9.7641   -6.4844   -3.5832 C   0  0  0  0  0  0
   -1.2977   -0.1255    1.0677 C   0  0  0  0  0  0
    9.9393   -7.5394   -2.5892 N   0  3  0  0  0  0
   -2.4987    0.5343    0.8355 C   0  0  0  0  0  0
   -1.3030   -1.4321    1.5414 C   0  0  0  0  0  0
   -3.7049   -0.1126    1.0769 C   0  0  0  0  0  0
   -2.5092   -2.0790    1.7828 C   0  0  0  0  0  0
   -3.7102   -1.4192    1.5505 C   0  0  0  0  0  0
   -5.0120   -2.1173    1.8111 C   0  0  0  0  0  0
   -4.8466   -3.4241    1.6134 F   0  0  0  0  0  0
   -5.9312   -1.6407    0.9732 F   0  0  0  0  0  0
   -5.3787   -1.8881    3.0709 F   0  0  0  0  0  0
    7.1162   -4.1509   -2.3660 H   0  0  0  0  0  0
    8.5449   -0.6171   -0.2828 H   0  0  0  0  0  0
    3.7388   -0.8503   -0.4762 H   0  0  0  0  0  0
    7.4541    0.9954    0.6424 H   0  0  0  0  0  0
    8.9598   -4.8529   -1.9244 H   0  0  0  0  0  0
    3.7892    2.9042    1.7018 H   0  0  0  0  0  0
   11.8140   -4.2273   -2.0826 H   0  0  0  0  0  0
   11.1060   -5.7089   -1.3955 H   0  0  0  0  0  0
    1.6408   -0.9002    1.3316 H   0  0  0  0  0  0
   10.7876   -4.7419   -4.2496 H   0  0  0  0  0  0
   11.8467   -6.0652   -3.7060 H   0  0  0  0  0  0
    8.8358   -5.9487   -3.3847 H   0  0  0  0  0  0
    9.7228   -6.9264   -4.5787 H   0  0  0  0  0  0
    9.1620   -8.1823   -2.6401 H   0  0  0  0  0  0
    9.9775   -7.1298   -1.6667 H   0  0  0  0  0  0
   -2.5157    1.5503    0.4692 H   0  0  0  0  0  0
   -0.3798   -1.9596    1.7288 H   0  0  0  0  0  0
   -4.6329    0.4109    0.9002 H   0  0  0  0  0  0
   -2.5033   -3.0919    2.1576 H   0  0  0  0  0  0
   10.7994   -8.0357   -2.7731 H   0  0  0  0  0  0
  1  2  1  0  0  0
  1  3  1  0  0  0
  2  4  1  0  0  0
  2  5  2  0  0  0
  3  6  2  0  0  0
  3 37  1  0  0  0
  4  7  2  0  0  0
  4  8  1  0  0  0
  5  6  1  0  0  0
  5 38  1  0  0  0
  6  9  1  0  0  0
  7 10  1  0  0  0
  7 39  1  0  0  0
  8 11  2  0  0  0
  8 40  1  0  0  0
  9 12  2  0  0  0
  9 13  1  0  0  0
 10 14  1  0  0  0
 10 15  2  0  0  0
 11 16  1  0  0  0
 11 15  1  0  0  0
 13 17  1  0  0  0
 13 41  1  0  0  0
 14 18  1  0  0  0
 14 19  1  0  0  0
 15 42  1  0  0  0
 16 20  2  0  0  0
 16 21  1  0  0  0
 17 22  1  0  0  0
 17 43  1  0  0  0
 17 44  1  0  0  0
 18 23  2  0  0  0
 19 24  2  0  0  0
 19 45  1  0  0  0
 22 25  1  0  0  0
 22 46  1  0  0  0
 22 47  1  0  0  0
 23 24  1  0  0  0
 24 26  1  0  0  0
 25 27  1  0  0  0
 25 48  1  0  0  0
 25 49  1  0  0  0
 26 28  2  0  0  0
 26 29  1  0  0  0
 27 50  1  0  0  0
 27 51  1  0  0  0
 27 56  1  0  0  0
 28 30  1  0  0  0
 28 52  1  0  0  0
 29 31  2  0  0  0
 29 53  1  0  0  0
 30 32  2  0  0  0
 30 54  1  0  0  0
 31 32  1  0  0  0
 31 55  1  0  0  0
 32 33  1  0  0  0
 33 34  1  0  0  0
 33 35  1  0  0  0
 33 36  1  0  0  0
M  CHG  2  21  -1  27   1
M  END
> <i_epik_Tot_Q>
0

> <i_epik_Tot_abs_Q>
2

> <i_lp_mmshare_version>
62121

> <i_m_Source_File_Index>
15

> <i_phase_Input_Structure_Number>
16

> <i_phase_Reference_Structure>
1

> <i_phase_Structure_Number>
16

> <Molecule Name>
43

> <Rotatable Bonds>
9

> <i_f3d_flags>
0

> <b_lp_Chiralities_Consistent>
1

> <r_canvas_IC50_human_P2Y14R,_nM>
735

> <r_canvas_pIC50>
6.13371266091581

> <r_epik_Charging_Adjusted_Penalty>
0.00202513666362965

> <r_epik_Ionization_Penalty>
  0.0011

> <r_epik_Ionization_Penalty_Charging>
  0.0011

> <r_epik_Ionization_Penalty_Neutral>
  0.0000

> <r_epik_State_Penalty>
  0.0009

> <r_lp_Energy>
51.680491

> <r_lp_tautomer_probability>
1

> <r_phase_Similarity_to_Reference>
0.814380856427162

> <s_canvas_CHEMBLID>
CHEMBL5074765

> <s_canvas_Compound>
25

> <s_canvas_Paper>
Yu2018

> <s_epik_cmdline>
J2VwaWtfcHl0aG9uJywgJy1waCcsICc3LjAnLCAnLXRuJywgJzgnLCAnLW1hJywgJzUwMCcsICctaW1hZScsICc8aW5maWxlLm1hZT4nLCAnLW9tYWUnLCAnPG91dGZpbGUubWFlPic=

> <s_epik_input>
W05IMl1bQ0gyXVtDSDJdW0NIMl1bTkhdQyg9TyljKFtjSF0xKVtjSF1zYzEtYzJbY0hdYyhbY0hdYyhbY0hdMilDKD1PKVtPSF0pLW4zbm5jKFtjSF0zKS1jNFtjSF1bY0hdYyhDKEYpKEYpRilbY0hdW2NIXTQ=

> <s_lp_Force_Field>
S-OPLS

> <s_lp_Variant>
43-1

> <s_m_Source_File>
database-not-aligned-realigned.sdf

> <s_m_Source_Path>
/data/matteo/P2Y14-antagonists-piperidineDerivatives-Wen2023/14052024-optimized-alignment

> <s_m_entry_id>
142

> <s_m_entry_name>
database-not-aligned-realigned.15

> <s_m_job_name>
align_ligands_2

> <s_phase_Alignment_Method>
snapped core

> <s_phase_Alignment_Reason>


> <s_phase_Core_SMARTS>
a1aaaaa1-a2aa(aa2)-a3aaaaa3

$$$$
44
                    3D
 Schrodinger Suite 2023-2.
 56 59  0  0  1  0            999 V2000
    7.0173   -3.3606   -1.9025 S   0  0  0  0  0  0
    8.3143   -2.3736   -1.3096 C   0  0  0  0  0  0
    5.8558   -2.2413   -1.2652 C   0  0  0  0  0  0
    9.7382   -2.7892   -1.5330 C   0  0  0  0  0  0
    7.8547   -1.2385   -0.6538 C   0  0  0  0  0  0
    6.4578   -1.1634   -0.6286 C   0  0  0  0  0  0
   10.7110   -2.0424   -1.4813 O   0  0  0  0  0  0
    9.8383   -4.0915   -1.8010 N   0  0  0  0  0  0
    5.6959   -0.0428    0.0147 C   0  0  0  0  0  0
   11.0817   -4.8093   -2.0664 C   0  0  0  0  0  0
    4.2688   -0.0378   -0.0014 C   0  0  0  0  0  0
    6.3738    1.0063    0.6388 C   0  0  0  0  0  0
   11.0248   -5.4185   -3.4359 C   0  0  0  0  0  0
    3.5729    1.0430    0.6162 C   0  0  0  0  0  0
    5.7140    2.0823    1.2549 C   0  0  0  0  0  0
    9.8704   -6.3734   -3.5108 C   0  0  0  0  0  0
    2.1133    1.0787    0.6116 N   0  0  0  0  0  0
    4.3095    2.0826    1.2307 C   0  0  0  0  0  0
    6.4824    3.1926    1.9177 C   0  0  0  0  0  0
   10.0456   -7.4276   -2.5161 N   0  3  0  0  0  0
    1.4087    2.1505    0.2272 N   0  0  0  0  0  0
    1.2788    0.0570    0.9868 C   0  0  0  0  0  0
    7.7329    3.1460    1.9172 O   0  0  0  0  0  0
    5.8483    4.1301    2.4513 O   0  5  0  0  0  0
    0.0745    1.8131    0.3572 N   0  0  0  0  0  0
    0.0041    0.5726    0.8072 C   0  0  0  0  0  0
   -1.2977   -0.1255    1.0677 C   0  0  0  0  0  0
   -2.4987    0.5343    0.8355 C   0  0  0  0  0  0
   -1.3030   -1.4321    1.5414 C   0  0  0  0  0  0
   -3.7049   -0.1126    1.0769 C   0  0  0  0  0  0
   -2.5092   -2.0790    1.7828 C   0  0  0  0  0  0
   -3.7102   -1.4192    1.5505 C   0  0  0  0  0  0
   -5.0120   -2.1173    1.8111 C   0  0  0  0  0  0
   -4.8466   -3.4241    1.6134 F   0  0  0  0  0  0
   -5.9312   -1.6407    0.9732 F   0  0  0  0  0  0
   -5.3787   -1.8881    3.0709 F   0  0  0  0  0  0
    4.7975   -2.4289   -1.3887 H   0  0  0  0  0  0
    8.5044   -0.4945   -0.2113 H   0  0  0  0  0  0
    9.0663   -4.7406   -1.8532 H   0  0  0  0  0  0
   11.9205   -4.1154   -2.0120 H   0  0  0  0  0  0
   11.2125   -5.5964   -1.3238 H   0  0  0  0  0  0
    3.7377   -0.8502   -0.4753 H   0  0  0  0  0  0
    7.4538    0.9862    0.6396 H   0  0  0  0  0  0
   10.8940   -4.6314   -4.1786 H   0  0  0  0  0  0
   11.9530   -5.9544   -3.6341 H   0  0  0  0  0  0
    8.9421   -5.8375   -3.3127 H   0  0  0  0  0  0
    9.8290   -6.8161   -4.5060 H   0  0  0  0  0  0
    3.7893    2.9043    1.7015 H   0  0  0  0  0  0
    9.2683   -8.0706   -2.5666 H   0  0  0  0  0  0
   10.0839   -7.0175   -1.5940 H   0  0  0  0  0  0
    1.6403   -0.9006    1.3312 H   0  0  0  0  0  0
   -2.5158    1.5502    0.4690 H   0  0  0  0  0  0
   -0.3799   -1.9598    1.7287 H   0  0  0  0  0  0
   -4.6331    0.4105    0.9001 H   0  0  0  0  0  0
   -2.5037   -3.0920    2.1575 H   0  0  0  0  0  0
   10.9057   -7.9242   -2.6997 H   0  0  0  0  0  0
  1  2  1  0  0  0
  1  3  1  0  0  0
  2  4  1  0  0  0
  2  5  2  0  0  0
  3  6  2  0  0  0
  3 37  1  0  0  0
  4  7  2  0  0  0
  4  8  1  0  0  0
  5  6  1  0  0  0
  5 38  1  0  0  0
  6  9  1  0  0  0
  8 10  1  0  0  0
  8 39  1  0  0  0
  9 11  2  0  0  0
  9 12  1  0  0  0
 10 13  1  0  0  0
 10 40  1  0  0  0
 10 41  1  0  0  0
 11 14  1  0  0  0
 11 42  1  0  0  0
 12 15  2  0  0  0
 12 43  1  0  0  0
 13 16  1  0  0  0
 13 44  1  0  0  0
 13 45  1  0  0  0
 14 17  1  0  0  0
 14 18  2  0  0  0
 15 19  1  0  0  0
 15 18  1  0  0  0
 16 20  1  0  0  0
 16 46  1  0  0  0
 16 47  1  0  0  0
 17 21  1  0  0  0
 17 22  1  0  0  0
 18 48  1  0  0  0
 19 23  2  0  0  0
 19 24  1  0  0  0
 20 49  1  0  0  0
 20 50  1  0  0  0
 20 56  1  0  0  0
 21 25  2  0  0  0
 22 26  2  0  0  0
 22 51  1  0  0  0
 25 26  1  0  0  0
 26 27  1  0  0  0
 27 28  2  0  0  0
 27 29  1  0  0  0
 28 30  1  0  0  0
 28 52  1  0  0  0
 29 31  2  0  0  0
 29 53  1  0  0  0
 30 32  2  0  0  0
 30 54  1  0  0  0
 31 32  1  0  0  0
 31 55  1  0  0  0
 32 33  1  0  0  0
 33 34  1  0  0  0
 33 35  1  0  0  0
 33 36  1  0  0  0
M  CHG  2  20   1  24  -1
M  END
> <i_epik_Tot_Q>
0

> <i_epik_Tot_abs_Q>
2

> <i_lp_mmshare_version>
62121

> <i_m_Source_File_Index>
16

> <i_phase_Input_Structure_Number>
17

> <i_phase_Reference_Structure>
1

> <i_phase_Structure_Number>
17

> <Molecule Name>
44

> <Rotatable Bonds>
9

> <i_f3d_flags>
0

> <b_lp_Chiralities_Consistent>
1

> <r_canvas_IC50_human_P2Y14R,_nM>
1750

> <r_canvas_pIC50>
5.75696195131371

> <r_epik_Charging_Adjusted_Penalty>
0.00221739151312081

> <r_epik_Ionization_Penalty>
  0.0012

> <r_epik_Ionization_Penalty_Charging>
  0.0012

> <r_epik_Ionization_Penalty_Neutral>
  0.0000

> <r_epik_State_Penalty>
  0.0010

> <r_lp_Energy>
46.967782

> <r_lp_tautomer_probability>
1

> <r_phase_Similarity_to_Reference>
0.798610407423308

> <s_canvas_CHEMBLID>
CHEMBL4879099

> <s_canvas_Compound>
26

> <s_canvas_Paper>
Yu2018

> <s_epik_cmdline>
J2VwaWtfcHl0aG9uJywgJy1waCcsICc3LjAnLCAnLXRuJywgJzgnLCAnLW1hJywgJzUwMCcsICctaW1hZScsICc8aW5maWxlLm1hZT4nLCAnLW9tYWUnLCAnPG91dGZpbGUubWFlPic=

> <s_epik_input>
W05IMl1bQ0gyXVtDSDJdW0NIMl1bTkhdQyg9TyljMXNbY0hdYyhbY0hdMSktYzJbY0hdYyhbY0hdYyhbY0hdMilDKD1PKVtPSF0pLW4zbm5jKFtjSF0zKS1jNFtjSF1bY0hdYyhDKEYpKEYpRilbY0hdW2NIXTQ=

> <s_lp_Force_Field>
S-OPLS

> <s_lp_Variant>
44-1

> <s_m_Source_File>
database-not-aligned-realigned.sdf

> <s_m_Source_Path>
/data/matteo/P2Y14-antagonists-piperidineDerivatives-Wen2023/14052024-optimized-alignment

> <s_m_entry_id>
143

> <s_m_entry_name>
database-not-aligned-realigned.16

> <s_m_job_name>
align_ligands_2

> <s_phase_Alignment_Method>
snapped core

> <s_phase_Alignment_Reason>


> <s_phase_Core_SMARTS>
a1aaaaa1-a2aa(aa2)-a3aaaaa3

$$$$
45
                    3D
 Schrodinger Suite 2023-2.
 46 49  0  0  1  0            999 V2000
   -4.8466   -3.4241    1.6134 F   0  0  0  0  0  0
   -5.0120   -2.1173    1.8111 C   0  0  0  0  0  0
   -5.9312   -1.6407    0.9732 F   0  0  0  0  0  0
   -5.3787   -1.8881    3.0709 F   0  0  0  0  0  0
   -3.7102   -1.4192    1.5505 C   0  0  0  0  0  0
   -3.7049   -0.1126    1.0769 C   0  0  0  0  0  0
   -2.5092   -2.0790    1.7828 C   0  0  0  0  0  0
   -2.4987    0.5343    0.8355 C   0  0  0  0  0  0
   -1.3030   -1.4321    1.5414 C   0  0  0  0  0  0
   -1.2977   -0.1255    1.0677 C   0  0  0  0  0  0
    0.0041    0.5726    0.8072 C   0  0  0  0  0  0
    0.0745    1.8131    0.3572 N   0  0  0  0  0  0
    1.2788    0.0570    0.9868 C   0  0  0  0  0  0
    1.4087    2.1505    0.2272 N   0  0  0  0  0  0
    2.1133    1.0787    0.6116 N   0  0  0  0  0  0
    3.5729    1.0430    0.6162 C   0  0  0  0  0  0
    4.2688   -0.0378   -0.0014 C   0  0  0  0  0  0
    4.3095    2.0826    1.2307 C   0  0  0  0  0  0
    5.6959   -0.0428    0.0147 C   0  0  0  0  0  0
    5.7140    2.0823    1.2549 C   0  0  0  0  0  0
    6.4845   -1.1328   -0.6109 C   0  0  0  0  0  0
    6.3738    1.0063    0.6388 C   0  0  0  0  0  0
    6.4824    3.1926    1.9177 C   0  0  0  0  0  0
    6.8885   -2.2318    0.1496 N   0  0  0  0  0  0
    6.8196   -1.0713   -1.9653 C   0  0  0  0  0  0
    7.7329    3.1460    1.9172 O   0  0  0  0  0  0
    5.8483    4.1301    2.4513 O   0  5  0  0  0  0
    7.6134   -3.2639   -0.4389 C   0  0  0  0  0  0
    7.5469   -2.1010   -2.5562 C   0  0  0  0  0  0
    7.9469   -3.2050   -1.7964 C   0  0  0  0  0  0
    8.7028   -4.3255   -2.4546 C   0  0  0  0  0  0
    8.5417   -4.5942   -3.6438 O   0  0  0  0  0  0
    9.5941   -4.9653   -1.6911 N   0  0  0  0  0  0
   -4.6332    0.4103    0.8999 H   0  0  0  0  0  0
   -2.5036   -3.0920    2.1572 H   0  0  0  0  0  0
   -2.5153    1.5503    0.4693 H   0  0  0  0  0  0
   -0.3799   -1.9596    1.7291 H   0  0  0  0  0  0
    1.6397   -0.8998    1.3340 H   0  0  0  0  0  0
    3.7260   -0.8405   -0.4787 H   0  0  0  0  0  0
    3.7663    2.8931    1.6951 H   0  0  0  0  0  0
    7.4542    0.9787    0.6403 H   0  0  0  0  0  0
    6.5109   -0.2238   -2.5599 H   0  0  0  0  0  0
    7.8838   -4.0964    0.1944 H   0  0  0  0  0  0
    7.7921   -2.0374   -3.6067 H   0  0  0  0  0  0
    9.7148   -4.6972   -0.7254 H   0  0  0  0  0  0
   10.1469   -5.7124   -2.0859 H   0  0  0  0  0  0
  1  2  1  0  0  0
  2  3  1  0  0  0
  2  4  1  0  0  0
  2  5  1  0  0  0
  5  6  2  0  0  0
  5  7  1  0  0  0
  6  8  1  0  0  0
  6 34  1  0  0  0
  7  9  2  0  0  0
  7 35  1  0  0  0
  8 10  2  0  0  0
  8 36  1  0  0  0
  9 10  1  0  0  0
  9 37  1  0  0  0
 10 11  1  0  0  0
 11 12  1  0  0  0
 11 13  2  0  0  0
 12 14  2  0  0  0
 13 15  1  0  0  0
 13 38  1  0  0  0
 14 15  1  0  0  0
 15 16  1  0  0  0
 16 17  2  0  0  0
 16 18  1  0  0  0
 17 19  1  0  0  0
 17 39  1  0  0  0
 18 20  2  0  0  0
 18 40  1  0  0  0
 19 21  1  0  0  0
 19 22  2  0  0  0
 20 23  1  0  0  0
 20 22  1  0  0  0
 21 24  2  0  0  0
 21 25  1  0  0  0
 22 41  1  0  0  0
 23 26  2  0  0  0
 23 27  1  0  0  0
 24 28  1  0  0  0
 25 29  2  0  0  0
 25 42  1  0  0  0
 28 30  2  0  0  0
 28 43  1  0  0  0
 29 30  1  0  0  0
 29 44  1  0  0  0
 30 31  1  0  0  0
 31 32  2  0  0  0
 31 33  1  0  0  0
 33 45  1  0  0  0
 33 46  1  0  0  0
M  CHG  1  27  -1
M  END
> <i_epik_Tot_Q>
-1

> <i_epik_Tot_abs_Q>
1

> <i_lp_mmshare_version>
62121

> <i_m_Source_File_Index>
17

> <i_phase_Input_Structure_Number>
33

> <i_phase_Reference_Structure>
41

> <i_phase_Structure_Number>
33

> <Molecule Name>
45

> <Rotatable Bonds>
6

> <i_f3d_flags>
0

> <b_lp_Chiralities_Consistent>
1

> <r_canvas_IC50_human_P2Y14R,_nM>
516

> <r_canvas_pIC50>
6.28735029837279

> <r_epik_Charging_Adjusted_Penalty>
0.000174829149637438

> <r_epik_Ionization_Penalty>
  0.0002

> <r_epik_Ionization_Penalty_Charging>
  0.0002

> <r_epik_Ionization_Penalty_Neutral>
  0.0001

> <r_epik_State_Penalty>
  0.0000

> <r_lp_Energy>
52.080934

> <r_lp_tautomer_probability>
1

> <r_phase_Similarity_to_Reference>
0.759768111829262

> <s_canvas_CHEMBLID>
CHEMBL4877701

> <s_canvas_Compound>
27

> <s_canvas_Paper>
Yu2018

> <s_epik_cmdline>
J2VwaWtfcHl0aG9uJywgJy1waCcsICc3LjAnLCAnLXRuJywgJzgnLCAnLW1hJywgJzUwMCcsICctaW1hZScsICc8aW5maWxlLm1hZT4nLCAnLW9tYWUnLCAnPG91dGZpbGUubWFlPic=

> <s_epik_input>
RkMoRikoRiljMVtjSF1bY0hdYyhbY0hdW2NIXTEpLWMybm5uKFtjSF0yKS1jM1tjSF1jKFtjSF1jKFtjSF0zKUMoPU8pW09IXSktYzRuW2NIXWMoW2NIXVtjSF00KUMoPU8pW05IMl0=

> <s_lp_Force_Field>
S-OPLS

> <s_lp_Variant>
45-1

> <s_m_Source_File>
database-aligned.sdf

> <s_m_Source_Path>
/data/matteo/P2Y14-antagonists-piperidineDerivatives-Wen2023/14052024-optimized-alignment

> <s_m_entry_id>
17

> <s_m_entry_name>
database-aligned.17

> <s_m_job_name>
align_ligands_1

> <s_phase_Alignment_Method>
snapped core

> <s_phase_Alignment_Reason>


> <s_phase_Core_SMARTS>
a1aaaaa1-a2aa(aa2)-a3aaaa(a3)-a4aaaaa4

$$$$
46
                    3D
 Schrodinger Suite 2023-2.
 46 49  0  0  1  0            999 V2000
   -4.8466   -3.4241    1.6134 F   0  0  0  0  0  0
   -5.0120   -2.1173    1.8111 C   0  0  0  0  0  0
   -5.9312   -1.6407    0.9732 F   0  0  0  0  0  0
   -5.3787   -1.8881    3.0709 F   0  0  0  0  0  0
   -3.7102   -1.4192    1.5505 C   0  0  0  0  0  0
   -2.5092   -2.0790    1.7828 C   0  0  0  0  0  0
   -3.7049   -0.1126    1.0769 C   0  0  0  0  0  0
   -1.3030   -1.4321    1.5414 C   0  0  0  0  0  0
   -2.4987    0.5343    0.8355 C   0  0  0  0  0  0
   -1.2977   -0.1255    1.0677 C   0  0  0  0  0  0
    0.0041    0.5726    0.8072 C   0  0  0  0  0  0
    0.0745    1.8131    0.3572 N   0  0  0  0  0  0
    1.2788    0.0570    0.9868 C   0  0  0  0  0  0
    1.4087    2.1505    0.2272 N   0  0  0  0  0  0
    2.1133    1.0787    0.6116 N   0  0  0  0  0  0
    3.5729    1.0430    0.6162 C   0  0  0  0  0  0
    4.2688   -0.0378   -0.0014 C   0  0  0  0  0  0
    4.3095    2.0826    1.2307 C   0  0  0  0  0  0
    5.6959   -0.0428    0.0147 C   0  0  0  0  0  0
    5.7140    2.0823    1.2549 C   0  0  0  0  0  0
    6.4845   -1.1328   -0.6109 C   0  0  0  0  0  0
    6.3738    1.0063    0.6388 C   0  0  0  0  0  0
    6.4824    3.1926    1.9177 C   0  0  0  0  0  0
    6.8885   -2.2318    0.1496 C   0  0  0  0  0  0
    6.8196   -1.0713   -1.9653 C   0  0  0  0  0  0
    7.7329    3.1460    1.9172 O   0  0  0  0  0  0
    5.8483    4.1301    2.4513 O   0  5  0  0  0  0
    7.6134   -3.2639   -0.4389 N   0  0  0  0  0  0
    7.5469   -2.1010   -2.5562 C   0  0  0  0  0  0
    7.9469   -3.2050   -1.7964 C   0  0  0  0  0  0
    8.7028   -4.3255   -2.4546 C   0  0  0  0  0  0
    8.5417   -4.5942   -3.6438 O   0  0  0  0  0  0
    9.5941   -4.9653   -1.6911 N   0  0  0  0  0  0
   -2.5039   -3.0924    2.1564 H   0  0  0  0  0  0
   -4.6333    0.4098    0.8991 H   0  0  0  0  0  0
   -0.3799   -1.9596    1.7288 H   0  0  0  0  0  0
   -2.5151    1.5502    0.4690 H   0  0  0  0  0  0
    1.6392   -0.8997    1.3338 H   0  0  0  0  0  0
    3.7250   -0.8395   -0.4794 H   0  0  0  0  0  0
    3.7663    2.8934    1.6948 H   0  0  0  0  0  0
    7.4544    0.9803    0.6404 H   0  0  0  0  0  0
    6.6506   -2.3210    1.1995 H   0  0  0  0  0  0
    6.5120   -0.2238   -2.5604 H   0  0  0  0  0  0
    7.7982   -2.0355   -3.6049 H   0  0  0  0  0  0
    9.7148   -4.6972   -0.7254 H   0  0  0  0  0  0
   10.1469   -5.7124   -2.0859 H   0  0  0  0  0  0
  1  2  1  0  0  0
  2  3  1  0  0  0
  2  4  1  0  0  0
  2  5  1  0  0  0
  5  6  2  0  0  0
  5  7  1  0  0  0
  6  8  1  0  0  0
  6 34  1  0  0  0
  7  9  2  0  0  0
  7 35  1  0  0  0
  8 10  2  0  0  0
  8 36  1  0  0  0
  9 10  1  0  0  0
  9 37  1  0  0  0
 10 11  1  0  0  0
 11 12  1  0  0  0
 11 13  2  0  0  0
 12 14  2  0  0  0
 13 15  1  0  0  0
 13 38  1  0  0  0
 14 15  1  0  0  0
 15 16  1  0  0  0
 16 17  2  0  0  0
 16 18  1  0  0  0
 17 19  1  0  0  0
 17 39  1  0  0  0
 18 20  2  0  0  0
 18 40  1  0  0  0
 19 21  1  0  0  0
 19 22  2  0  0  0
 20 23  1  0  0  0
 20 22  1  0  0  0
 21 24  2  0  0  0
 21 25  1  0  0  0
 22 41  1  0  0  0
 23 26  2  0  0  0
 23 27  1  0  0  0
 24 28  1  0  0  0
 24 42  1  0  0  0
 25 29  2  0  0  0
 25 43  1  0  0  0
 28 30  2  0  0  0
 29 30  1  0  0  0
 29 44  1  0  0  0
 30 31  1  0  0  0
 31 32  2  0  0  0
 31 33  1  0  0  0
 33 45  1  0  0  0
 33 46  1  0  0  0
M  CHG  1  27  -1
M  END
> <i_epik_Tot_Q>
-1

> <i_epik_Tot_abs_Q>
1

> <i_lp_mmshare_version>
62121

> <i_m_Source_File_Index>
18

> <i_phase_Input_Structure_Number>
34

> <i_phase_Reference_Structure>
41

> <i_phase_Structure_Number>
34

> <Molecule Name>
46

> <Rotatable Bonds>
6

> <i_f3d_flags>
0

> <b_lp_Chiralities_Consistent>
1

> <r_canvas_IC50_human_P2Y14R,_nM>
1410

> <r_canvas_pIC50>
5.85078088734462

> <r_epik_Charging_Adjusted_Penalty>
0.000174829149637438

> <r_epik_Ionization_Penalty>
  0.0002

> <r_epik_Ionization_Penalty_Charging>
  0.0002

> <r_epik_Ionization_Penalty_Neutral>
  0.0000

> <r_epik_State_Penalty>
  0.0000

> <r_lp_Energy>
48.963478

> <r_lp_tautomer_probability>
1

> <r_phase_Similarity_to_Reference>
0.759465376708612

> <s_canvas_CHEMBLID>
CHEMBL4877577

> <s_canvas_Compound>
28

> <s_canvas_Paper>
Yu2018

> <s_epik_cmdline>
J2VwaWtfcHl0aG9uJywgJy1waCcsICc3LjAnLCAnLXRuJywgJzgnLCAnLW1hJywgJzUwMCcsICctaW1hZScsICc8aW5maWxlLm1hZT4nLCAnLW9tYWUnLCAnPG91dGZpbGUubWFlPic=

> <s_epik_input>
RkMoRikoRiljMVtjSF1bY0hdYyhbY0hdW2NIXTEpLWMybm5uKFtjSF0yKS1jM1tjSF1jKFtjSF1jKFtjSF0zKUMoPU8pW09IXSktYzRbY0hdbmMoW2NIXVtjSF00KUMoPU8pW05IMl0=

> <s_lp_Force_Field>
S-OPLS

> <s_lp_Variant>
46-1

> <s_m_Source_File>
database-aligned.sdf

> <s_m_Source_Path>
/data/matteo/P2Y14-antagonists-piperidineDerivatives-Wen2023/14052024-optimized-alignment

> <s_m_entry_id>
18

> <s_m_entry_name>
database-aligned.18

> <s_m_job_name>
align_ligands_1

> <s_phase_Alignment_Method>
snapped core

> <s_phase_Alignment_Reason>


> <s_phase_Core_SMARTS>
a1aaaaa1-a2aa(aa2)-a3aaaa(a3)-a4aaaaa4

$$$$
47
                    3D
 Schrodinger Suite 2023-2.
 45 48  0  0  1  0            999 V2000
   -4.8466   -3.4241    1.6134 F   0  0  0  0  0  0
   -5.0120   -2.1173    1.8111 C   0  0  0  0  0  0
   -5.9312   -1.6407    0.9732 F   0  0  0  0  0  0
   -5.3787   -1.8881    3.0709 F   0  0  0  0  0  0
   -3.7102   -1.4192    1.5505 C   0  0  0  0  0  0
   -3.7049   -0.1126    1.0769 C   0  0  0  0  0  0
   -2.5092   -2.0790    1.7828 C   0  0  0  0  0  0
   -2.4987    0.5343    0.8355 C   0  0  0  0  0  0
   -1.3030   -1.4321    1.5414 C   0  0  0  0  0  0
   -1.2977   -0.1255    1.0677 C   0  0  0  0  0  0
    0.0041    0.5726    0.8072 C   0  0  0  0  0  0
    0.0745    1.8131    0.3572 N   0  0  0  0  0  0
    1.2788    0.0570    0.9868 C   0  0  0  0  0  0
    1.4087    2.1505    0.2272 N   0  0  0  0  0  0
    2.1133    1.0787    0.6116 N   0  0  0  0  0  0
    3.5729    1.0430    0.6162 C   0  0  0  0  0  0
    4.2688   -0.0378   -0.0014 C   0  0  0  0  0  0
    4.3095    2.0826    1.2307 C   0  0  0  0  0  0
    5.6959   -0.0428    0.0147 C   0  0  0  0  0  0
    5.7140    2.0823    1.2549 C   0  0  0  0  0  0
    6.4845   -1.1328   -0.6109 C   0  0  0  0  0  0
    6.3738    1.0063    0.6388 C   0  0  0  0  0  0
    6.4824    3.1926    1.9177 C   0  0  0  0  0  0
    6.8196   -1.0713   -1.9653 N   0  0  0  0  0  0
    6.8885   -2.2318    0.1496 C   0  0  0  0  0  0
    7.7329    3.1460    1.9172 O   0  0  0  0  0  0
    5.8483    4.1301    2.4513 O   0  5  0  0  0  0
    7.5469   -2.1010   -2.5562 C   0  0  0  0  0  0
    7.6134   -3.2639   -0.4389 N   0  0  0  0  0  0
    7.9469   -3.2050   -1.7964 C   0  0  0  0  0  0
    8.7028   -4.3255   -2.4546 C   0  0  0  0  0  0
    8.5417   -4.5942   -3.6438 O   0  0  0  0  0  0
    9.5941   -4.9653   -1.6911 N   0  0  0  0  0  0
   -4.6333    0.4106    0.9017 H   0  0  0  0  0  0
   -2.5042   -3.0915    2.1585 H   0  0  0  0  0  0
   -2.5148    1.5505    0.4698 H   0  0  0  0  0  0
   -0.3798   -1.9594    1.7291 H   0  0  0  0  0  0
    1.6392   -0.8999    1.3338 H   0  0  0  0  0  0
    3.7256   -0.8411   -0.4775 H   0  0  0  0  0  0
    3.7670    2.8932    1.6957 H   0  0  0  0  0  0
    7.4542    0.9790    0.6414 H   0  0  0  0  0  0
    6.6505   -2.3207    1.1995 H   0  0  0  0  0  0
    7.7775   -2.0042   -3.6072 H   0  0  0  0  0  0
    9.7148   -4.6972   -0.7254 H   0  0  0  0  0  0
   10.1469   -5.7124   -2.0859 H   0  0  0  0  0  0
  1  2  1  0  0  0
  2  3  1  0  0  0
  2  4  1  0  0  0
  2  5  1  0  0  0
  5  6  2  0  0  0
  5  7  1  0  0  0
  6  8  1  0  0  0
  6 34  1  0  0  0
  7  9  2  0  0  0
  7 35  1  0  0  0
  8 10  2  0  0  0
  8 36  1  0  0  0
  9 10  1  0  0  0
  9 37  1  0  0  0
 10 11  1  0  0  0
 11 12  1  0  0  0
 11 13  2  0  0  0
 12 14  2  0  0  0
 13 15  1  0  0  0
 13 38  1  0  0  0
 14 15  1  0  0  0
 15 16  1  0  0  0
 16 17  2  0  0  0
 16 18  1  0  0  0
 17 19  1  0  0  0
 17 39  1  0  0  0
 18 20  2  0  0  0
 18 40  1  0  0  0
 19 21  1  0  0  0
 19 22  2  0  0  0
 20 23  1  0  0  0
 20 22  1  0  0  0
 21 24  2  0  0  0
 21 25  1  0  0  0
 22 41  1  0  0  0
 23 26  2  0  0  0
 23 27  1  0  0  0
 24 28  1  0  0  0
 25 29  2  0  0  0
 25 42  1  0  0  0
 28 30  2  0  0  0
 28 43  1  0  0  0
 29 30  1  0  0  0
 30 31  1  0  0  0
 31 32  2  0  0  0
 31 33  1  0  0  0
 33 44  1  0  0  0
 33 45  1  0  0  0
M  CHG  1  27  -1
M  END
> <i_epik_Tot_Q>
-1

> <i_epik_Tot_abs_Q>
1

> <i_lp_mmshare_version>
62121

> <i_m_Source_File_Index>
19

> <i_phase_Input_Structure_Number>
35

> <i_phase_Reference_Structure>
41

> <i_phase_Structure_Number>
35

> <Molecule Name>
47

> <Rotatable Bonds>
6

> <i_f3d_flags>
0

> <b_lp_Chiralities_Consistent>
1

> <r_canvas_IC50_human_P2Y14R,_nM>
566

> <r_canvas_pIC50>
6.24718356881173

> <r_epik_Charging_Adjusted_Penalty>
0.0001558191434654

> <r_epik_Ionization_Penalty>
  0.0002

> <r_epik_Ionization_Penalty_Charging>
  0.0002

> <r_epik_Ionization_Penalty_Neutral>
  0.0000

> <r_epik_State_Penalty>
  0.0000

> <r_lp_Energy>
49.184171

> <r_lp_tautomer_probability>
1

> <r_phase_Similarity_to_Reference>
0.726351252305181

> <s_canvas_CHEMBLID>
CHEMBL4877496

> <s_canvas_Compound>
29

> <s_canvas_Paper>
Yu2018

> <s_epik_cmdline>
J2VwaWtfcHl0aG9uJywgJy1waCcsICc3LjAnLCAnLXRuJywgJzgnLCAnLW1hJywgJzUwMCcsICctaW1hZScsICc8aW5maWxlLm1hZT4nLCAnLW9tYWUnLCAnPG91dGZpbGUubWFlPic=

> <s_epik_input>
RkMoRikoRiljMVtjSF1bY0hdYyhbY0hdW2NIXTEpLWMybm5uKFtjSF0yKS1jM1tjSF1jKFtjSF1jKFtjSF0zKUMoPU8pW09IXSktYzRuW2NIXWMobltjSF00KUMoPU8pW05IMl0=

> <s_lp_Force_Field>
S-OPLS

> <s_lp_Variant>
47-1

> <s_m_Source_File>
database-aligned.sdf

> <s_m_Source_Path>
/data/matteo/P2Y14-antagonists-piperidineDerivatives-Wen2023/14052024-optimized-alignment

> <s_m_entry_id>
19

> <s_m_entry_name>
database-aligned.19

> <s_m_job_name>
align_ligands_1

> <s_phase_Alignment_Method>
snapped core

> <s_phase_Alignment_Reason>


> <s_phase_Core_SMARTS>
a1aaaaa1-a2aa(aa2)-a3aaaa(a3)-a4aaaaa4

$$$$
48
                    3D
 Schrodinger Suite 2023-2.
 47 50  0  0  1  0            999 V2000
   -4.8466   -3.4241    1.6134 F   0  0  0  0  0  0
   -5.0120   -2.1173    1.8111 C   0  0  0  0  0  0
   -5.9312   -1.6407    0.9732 F   0  0  0  0  0  0
   -5.3787   -1.8881    3.0709 F   0  0  0  0  0  0
   -3.7102   -1.4192    1.5505 C   0  0  0  0  0  0
   -2.5092   -2.0790    1.7828 C   0  0  0  0  0  0
   -3.7049   -0.1126    1.0769 C   0  0  0  0  0  0
   -1.3030   -1.4321    1.5414 C   0  0  0  0  0  0
   -2.4987    0.5343    0.8355 C   0  0  0  0  0  0
   -1.2977   -0.1255    1.0677 C   0  0  0  0  0  0
    0.0041    0.5726    0.8072 C   0  0  0  0  0  0
    0.0745    1.8131    0.3572 N   0  0  0  0  0  0
    1.2788    0.0570    0.9868 C   0  0  0  0  0  0
    1.4087    2.1505    0.2272 N   0  0  0  0  0  0
    2.1133    1.0787    0.6116 N   0  0  0  0  0  0
    3.5729    1.0430    0.6162 C   0  0  0  0  0  0
    4.2688   -0.0378   -0.0014 C   0  0  0  0  0  0
    4.3095    2.0826    1.2307 C   0  0  0  0  0  0
    5.6959   -0.0428    0.0147 C   0  0  0  0  0  0
    5.7140    2.0823    1.2549 C   0  0  0  0  0  0
    6.4845   -1.1328   -0.6109 C   0  0  0  0  0  0
    6.3738    1.0063    0.6388 C   0  0  0  0  0  0
    6.4824    3.1926    1.9177 C   0  0  0  0  0  0
    6.8196   -1.0713   -1.9653 C   0  0  0  0  0  0
    6.8885   -2.2318    0.1496 C   0  0  0  0  0  0
    7.7329    3.1460    1.9172 O   0  0  0  0  0  0
    5.8483    4.1301    2.4513 O   0  5  0  0  0  0
    7.5469   -2.1010   -2.5562 C   0  0  0  0  0  0
    7.6134   -3.2639   -0.4389 C   0  0  0  0  0  0
    7.9469   -3.2050   -1.7964 C   0  0  0  0  0  0
    8.7028   -4.3255   -2.4546 C   0  0  0  0  0  0
    8.5417   -4.5942   -3.6438 O   0  0  0  0  0  0
    9.5941   -4.9653   -1.6911 N   0  0  0  0  0  0
   -2.5035   -3.0920    2.1573 H   0  0  0  0  0  0
   -4.6331    0.4104    0.8999 H   0  0  0  0  0  0
   -0.3799   -1.9596    1.7292 H   0  0  0  0  0  0
   -2.5153    1.5503    0.4693 H   0  0  0  0  0  0
    1.6396   -0.8998    1.3337 H   0  0  0  0  0  0
    3.7255   -0.8399   -0.4792 H   0  0  0  0  0  0
    3.7662    2.8933    1.6947 H   0  0  0  0  0  0
    7.4543    0.9795    0.6399 H   0  0  0  0  0  0
    6.5110   -0.2241   -2.5605 H   0  0  0  0  0  0
    6.6309   -2.2879    1.1973 H   0  0  0  0  0  0
    7.7925   -2.0377   -3.6066 H   0  0  0  0  0  0
    7.9005   -4.1108    0.1674 H   0  0  0  0  0  0
    9.7148   -4.6972   -0.7254 H   0  0  0  0  0  0
   10.1469   -5.7124   -2.0859 H   0  0  0  0  0  0
  1  2  1  0  0  0
  2  3  1  0  0  0
  2  4  1  0  0  0
  2  5  1  0  0  0
  5  6  2  0  0  0
  5  7  1  0  0  0
  6  8  1  0  0  0
  6 34  1  0  0  0
  7  9  2  0  0  0
  7 35  1  0  0  0
  8 10  2  0  0  0
  8 36  1  0  0  0
  9 10  1  0  0  0
  9 37  1  0  0  0
 10 11  1  0  0  0
 11 12  1  0  0  0
 11 13  2  0  0  0
 12 14  2  0  0  0
 13 15  1  0  0  0
 13 38  1  0  0  0
 14 15  1  0  0  0
 15 16  1  0  0  0
 16 17  2  0  0  0
 16 18  1  0  0  0
 17 19  1  0  0  0
 17 39  1  0  0  0
 18 20  2  0  0  0
 18 40  1  0  0  0
 19 21  1  0  0  0
 19 22  2  0  0  0
 20 23  1  0  0  0
 20 22  1  0  0  0
 21 24  2  0  0  0
 21 25  1  0  0  0
 22 41  1  0  0  0
 23 26  2  0  0  0
 23 27  1  0  0  0
 24 28  1  0  0  0
 24 42  1  0  0  0
 25 29  2  0  0  0
 25 43  1  0  0  0
 28 30  2  0  0  0
 28 44  1  0  0  0
 29 30  1  0  0  0
 29 45  1  0  0  0
 30 31  1  0  0  0
 31 32  2  0  0  0
 31 33  1  0  0  0
 33 46  1  0  0  0
 33 47  1  0  0  0
M  CHG  1  27  -1
M  END
> <i_epik_Tot_Q>
-1

> <i_epik_Tot_abs_Q>
1

> <i_lp_mmshare_version>
62121

> <i_m_Source_File_Index>
20

> <i_phase_Input_Structure_Number>
36

> <i_phase_Reference_Structure>
41

> <i_phase_Structure_Number>
36

> <Molecule Name>
48

> <Rotatable Bonds>
6

> <i_f3d_flags>
0

> <b_lp_Chiralities_Consistent>
1

> <r_canvas_IC50_human_P2Y14R,_nM>
269

> <r_canvas_pIC50>
6.57024771999759

> <r_epik_Charging_Adjusted_Penalty>
0.000166961650298847

> <r_epik_Ionization_Penalty>
  0.0002

> <r_epik_Ionization_Penalty_Charging>
  0.0002

> <r_epik_Ionization_Penalty_Neutral>
  0.0000

> <r_epik_State_Penalty>
  0.0000

> <r_lp_Energy>
44.871103

> <r_lp_tautomer_probability>
1

> <r_phase_Similarity_to_Reference>
0.792880466364394

> <s_canvas_CHEMBLID>
CHEMBL4877136;

> <s_canvas_Compound>
30

> <s_canvas_Paper>
Yu2018

> <s_epik_cmdline>
J2VwaWtfcHl0aG9uJywgJy1waCcsICc3LjAnLCAnLXRuJywgJzgnLCAnLW1hJywgJzUwMCcsICctaW1hZScsICc8aW5maWxlLm1hZT4nLCAnLW9tYWUnLCAnPG91dGZpbGUubWFlPic=

> <s_epik_input>
RkMoRikoRiljMVtjSF1bY0hdYyhbY0hdW2NIXTEpLWMybm5uKFtjSF0yKS1jM1tjSF1jKFtjSF1jKFtjSF0zKUMoPU8pW09IXSktYzRbY0hdW2NIXWMoW2NIXVtjSF00KUMoPU8pW05IMl0=

> <s_lp_Force_Field>
S-OPLS

> <s_lp_Variant>
48-1

> <s_m_Source_File>
database-aligned.sdf

> <s_m_Source_Path>
/data/matteo/P2Y14-antagonists-piperidineDerivatives-Wen2023/14052024-optimized-alignment

> <s_m_entry_id>
20

> <s_m_entry_name>
database-aligned.20

> <s_m_job_name>
align_ligands_1

> <s_phase_Alignment_Method>
snapped core

> <s_phase_Alignment_Reason>


> <s_phase_Core_SMARTS>
a1aaaaa1-a2aa(aa2)-a3aaaa(a3)-a4aaaaa4

$$$$
49
                    3D
 Schrodinger Suite 2023-2.
 50 53  0  0  1  0            999 V2000
   -4.8466   -3.4241    1.6134 F   0  0  0  0  0  0
   -5.0120   -2.1173    1.8111 C   0  0  0  0  0  0
   -5.9312   -1.6407    0.9732 F   0  0  0  0  0  0
   -5.3787   -1.8881    3.0709 F   0  0  0  0  0  0
   -3.7102   -1.4192    1.5505 C   0  0  0  0  0  0
   -3.7049   -0.1126    1.0769 C   0  0  0  0  0  0
   -2.5092   -2.0790    1.7828 C   0  0  0  0  0  0
   -2.4987    0.5343    0.8355 C   0  0  0  0  0  0
   -1.3030   -1.4321    1.5414 C   0  0  0  0  0  0
   -1.2977   -0.1255    1.0677 C   0  0  0  0  0  0
    0.0041    0.5726    0.8072 C   0  0  0  0  0  0
    0.0745    1.8131    0.3572 N   0  0  0  0  0  0
    1.2788    0.0570    0.9868 C   0  0  0  0  0  0
    1.4087    2.1505    0.2272 N   0  0  0  0  0  0
    2.1133    1.0787    0.6116 N   0  0  0  0  0  0
    3.5729    1.0430    0.6162 C   0  0  0  0  0  0
    4.2688   -0.0378   -0.0014 C   0  0  0  0  0  0
    4.3095    2.0826    1.2307 C   0  0  0  0  0  0
    5.6959   -0.0428    0.0147 C   0  0  0  0  0  0
    5.7140    2.0823    1.2549 C   0  0  0  0  0  0
    6.4845   -1.1328   -0.6109 C   0  0  0  0  0  0
    6.3738    1.0063    0.6388 C   0  0  0  0  0  0
    6.4824    3.1926    1.9177 C   0  0  0  0  0  0
    6.8885   -2.2318    0.1496 C   0  0  0  0  0  0
    6.8196   -1.0713   -1.9653 C   0  0  0  0  0  0
    7.7329    3.1460    1.9172 O   0  0  0  0  0  0
    5.8483    4.1301    2.4513 O   0  5  0  0  0  0
    7.6134   -3.2639   -0.4389 C   0  0  0  0  0  0
    7.5469   -2.1010   -2.5562 C   0  0  0  0  0  0
    7.9469   -3.2050   -1.7964 C   0  0  0  0  0  0
    8.7023   -4.3265   -2.4532 C   0  0  0  0  0  0
    8.5190   -4.6040   -3.6388 O   0  0  0  0  0  0
    9.6084   -4.9471   -1.6819 N   0  0  0  0  0  0
   10.4575   -6.0392   -2.1317 C   0  0  0  0  0  0
   -4.6330    0.4109    0.9008 H   0  0  0  0  0  0
   -2.5029   -3.0916    2.1584 H   0  0  0  0  0  0
   -2.5153    1.5503    0.4694 H   0  0  0  0  0  0
   -0.3799   -1.9595    1.7294 H   0  0  0  0  0  0
    1.6395   -0.8997    1.3335 H   0  0  0  0  0  0
    3.7255   -0.8404   -0.4785 H   0  0  0  0  0  0
    3.7664    2.8932    1.6951 H   0  0  0  0  0  0
    7.4542    0.9792    0.6402 H   0  0  0  0  0  0
    6.6319   -2.2874    1.1976 H   0  0  0  0  0  0
    6.5110   -0.2242   -2.5605 H   0  0  0  0  0  0
    7.9011   -4.1105    0.1674 H   0  0  0  0  0  0
    7.7925   -2.0378   -3.6067 H   0  0  0  0  0  0
    9.7144   -4.6401   -0.7259 H   0  0  0  0  0  0
   11.0928   -6.3775   -1.3131 H   0  0  0  0  0  0
   11.1000   -5.7190   -2.9527 H   0  0  0  0  0  0
    9.8571   -6.8853   -2.4686 H   0  0  0  0  0  0
  1  2  1  0  0  0
  2  3  1  0  0  0
  2  4  1  0  0  0
  2  5  1  0  0  0
  5  6  2  0  0  0
  5  7  1  0  0  0
  6  8  1  0  0  0
  6 35  1  0  0  0
  7  9  2  0  0  0
  7 36  1  0  0  0
  8 10  2  0  0  0
  8 37  1  0  0  0
  9 10  1  0  0  0
  9 38  1  0  0  0
 10 11  1  0  0  0
 11 12  1  0  0  0
 11 13  2  0  0  0
 12 14  2  0  0  0
 13 15  1  0  0  0
 13 39  1  0  0  0
 14 15  1  0  0  0
 15 16  1  0  0  0
 16 17  2  0  0  0
 16 18  1  0  0  0
 17 19  1  0  0  0
 17 40  1  0  0  0
 18 20  2  0  0  0
 18 41  1  0  0  0
 19 21  1  0  0  0
 19 22  2  0  0  0
 20 23  1  0  0  0
 20 22  1  0  0  0
 21 24  2  0  0  0
 21 25  1  0  0  0
 22 42  1  0  0  0
 23 26  2  0  0  0
 23 27  1  0  0  0
 24 28  1  0  0  0
 24 43  1  0  0  0
 25 29  2  0  0  0
 25 44  1  0  0  0
 28 30  2  0  0  0
 28 45  1  0  0  0
 29 30  1  0  0  0
 29 46  1  0  0  0
 30 31  1  0  0  0
 31 32  2  0  0  0
 31 33  1  0  0  0
 33 34  1  0  0  0
 33 47  1  0  0  0
 34 48  1  0  0  0
 34 49  1  0  0  0
 34 50  1  0  0  0
M  CHG  1  27  -1
M  END
> <i_epik_Tot_Q>
-1

> <i_epik_Tot_abs_Q>
1

> <i_lp_mmshare_version>
62121

> <i_m_Source_File_Index>
21

> <i_phase_Input_Structure_Number>
37

> <i_phase_Reference_Structure>
41

> <i_phase_Structure_Number>
37

> <Molecule Name>
49

> <Rotatable Bonds>
6

> <i_f3d_flags>
0

> <b_lp_Chiralities_Consistent>
1

> <r_canvas_IC50_human_P2Y14R,_nM>
563

> <r_canvas_pIC50>
6.24949160514865

> <r_epik_Charging_Adjusted_Penalty>
0.000166961650298847

> <r_epik_Ionization_Penalty>
  0.0002

> <r_epik_Ionization_Penalty_Charging>
  0.0002

> <r_epik_Ionization_Penalty_Neutral>
  0.0000

> <r_epik_State_Penalty>
  0.0000

> <r_lp_Energy>
47.363691

> <r_lp_tautomer_probability>
1

> <r_phase_Similarity_to_Reference>
0.819803885591286

> <s_canvas_CHEMBLID>
CHEMBL4876369

> <s_canvas_Compound>
31

> <s_canvas_Paper>
Yu2018

> <s_epik_cmdline>
J2VwaWtfcHl0aG9uJywgJy1waCcsICc3LjAnLCAnLXRuJywgJzgnLCAnLW1hJywgJzUwMCcsICctaW1hZScsICc8aW5maWxlLm1hZT4nLCAnLW9tYWUnLCAnPG91dGZpbGUubWFlPic=

> <s_epik_input>
RkMoRikoRiljMVtjSF1bY0hdYyhbY0hdW2NIXTEpLWMybm5uKFtjSF0yKS1jM1tjSF1jKFtjSF1jKFtjSF0zKUMoPU8pW09IXSktYzRbY0hdW2NIXWMoW2NIXVtjSF00KUMoPU8pW05IXVtDSDNd

> <s_lp_Force_Field>
S-OPLS

> <s_lp_Variant>
49-1

> <s_m_Source_File>
database-aligned.sdf

> <s_m_Source_Path>
/data/matteo/P2Y14-antagonists-piperidineDerivatives-Wen2023/14052024-optimized-alignment

> <s_m_entry_id>
21

> <s_m_entry_name>
database-aligned.21

> <s_m_job_name>
align_ligands_1

> <s_phase_Alignment_Method>
snapped core

> <s_phase_Alignment_Reason>


> <s_phase_Core_SMARTS>
a1aaaaa1-a2aa(aa2)-a3aaaa(a3)-a4aaaaa4

$$$$
50
                    3D
 Schrodinger Suite 2023-2.
 53 56  0  0  1  0            999 V2000
   -4.8466   -3.4241    1.6134 F   0  0  0  0  0  0
   -5.0120   -2.1173    1.8111 C   0  0  0  0  0  0
   -5.9312   -1.6407    0.9732 F   0  0  0  0  0  0
   -5.3787   -1.8881    3.0709 F   0  0  0  0  0  0
   -3.7102   -1.4192    1.5505 C   0  0  0  0  0  0
   -2.5092   -2.0790    1.7828 C   0  0  0  0  0  0
   -3.7049   -0.1126    1.0769 C   0  0  0  0  0  0
   -1.3030   -1.4321    1.5414 C   0  0  0  0  0  0
   -2.4987    0.5343    0.8355 C   0  0  0  0  0  0
   -1.2977   -0.1255    1.0677 C   0  0  0  0  0  0
    0.0041    0.5726    0.8072 C   0  0  0  0  0  0
    0.0745    1.8131    0.3572 N   0  0  0  0  0  0
    1.2788    0.0570    0.9868 C   0  0  0  0  0  0
    1.4087    2.1505    0.2272 N   0  0  0  0  0  0
    2.1133    1.0787    0.6116 N   0  0  0  0  0  0
    3.5729    1.0430    0.6162 C   0  0  0  0  0  0
    4.2688   -0.0378   -0.0014 C   0  0  0  0  0  0
    4.3095    2.0826    1.2307 C   0  0  0  0  0  0
    5.6959   -0.0428    0.0147 C   0  0  0  0  0  0
    5.7140    2.0823    1.2549 C   0  0  0  0  0  0
    6.4845   -1.1328   -0.6109 C   0  0  0  0  0  0
    6.3738    1.0063    0.6388 C   0  0  0  0  0  0
    6.4824    3.1926    1.9177 C   0  0  0  0  0  0
    6.8885   -2.2318    0.1496 C   0  0  0  0  0  0
    6.8196   -1.0713   -1.9653 C   0  0  0  0  0  0
    7.7329    3.1460    1.9172 O   0  0  0  0  0  0
    5.8483    4.1301    2.4513 O   0  5  0  0  0  0
    7.6134   -3.2639   -0.4389 C   0  0  0  0  0  0
    7.5469   -2.1010   -2.5562 C   0  0  0  0  0  0
    7.9469   -3.2050   -1.7964 C   0  0  0  0  0  0
    8.7003   -4.3271   -2.4553 C   0  0  0  0  0  0
    8.5282   -4.5897   -3.6462 O   0  0  0  0  0  0
    9.5915   -4.9655   -1.6787 N   0  0  0  0  0  0
   10.4497   -6.0618   -2.1127 C   0  0  0  0  0  0
    9.6967   -7.3988   -2.1264 C   0  0  0  0  0  0
   -2.5036   -3.0918    2.1578 H   0  0  0  0  0  0
   -4.6333    0.4102    0.9003 H   0  0  0  0  0  0
   -0.3799   -1.9595    1.7292 H   0  0  0  0  0  0
   -2.5151    1.5503    0.4693 H   0  0  0  0  0  0
    1.6396   -0.8998    1.3336 H   0  0  0  0  0  0
    3.7255   -0.8399   -0.4792 H   0  0  0  0  0  0
    3.7664    2.8936    1.6943 H   0  0  0  0  0  0
    7.4542    0.9797    0.6395 H   0  0  0  0  0  0
    6.6320   -2.2873    1.1975 H   0  0  0  0  0  0
    6.5108   -0.2242   -2.5605 H   0  0  0  0  0  0
    7.9007   -4.1104    0.1677 H   0  0  0  0  0  0
    7.7918   -2.0378   -3.6068 H   0  0  0  0  0  0
    9.6818   -4.6664   -0.7186 H   0  0  0  0  0  0
   10.8649   -5.8493   -3.0994 H   0  0  0  0  0  0
   11.2949   -6.1235   -1.4271 H   0  0  0  0  0  0
   10.3599   -8.2130   -2.4187 H   0  0  0  0  0  0
    8.8659   -7.3804   -2.8324 H   0  0  0  0  0  0
    9.2950   -7.6353   -1.1407 H   0  0  0  0  0  0
  1  2  1  0  0  0
  2  3  1  0  0  0
  2  4  1  0  0  0
  2  5  1  0  0  0
  5  6  2  0  0  0
  5  7  1  0  0  0
  6  8  1  0  0  0
  6 36  1  0  0  0
  7  9  2  0  0  0
  7 37  1  0  0  0
  8 10  2  0  0  0
  8 38  1  0  0  0
  9 10  1  0  0  0
  9 39  1  0  0  0
 10 11  1  0  0  0
 11 12  1  0  0  0
 11 13  2  0  0  0
 12 14  2  0  0  0
 13 15  1  0  0  0
 13 40  1  0  0  0
 14 15  1  0  0  0
 15 16  1  0  0  0
 16 17  2  0  0  0
 16 18  1  0  0  0
 17 19  1  0  0  0
 17 41  1  0  0  0
 18 20  2  0  0  0
 18 42  1  0  0  0
 19 21  1  0  0  0
 19 22  2  0  0  0
 20 23  1  0  0  0
 20 22  1  0  0  0
 21 24  2  0  0  0
 21 25  1  0  0  0
 22 43  1  0  0  0
 23 26  2  0  0  0
 23 27  1  0  0  0
 24 28  1  0  0  0
 24 44  1  0  0  0
 25 29  2  0  0  0
 25 45  1  0  0  0
 28 30  2  0  0  0
 28 46  1  0  0  0
 29 30  1  0  0  0
 29 47  1  0  0  0
 30 31  1  0  0  0
 31 32  2  0  0  0
 31 33  1  0  0  0
 33 34  1  0  0  0
 33 48  1  0  0  0
 34 35  1  0  0  0
 34 49  1  0  0  0
 34 50  1  0  0  0
 35 51  1  0  0  0
 35 52  1  0  0  0
 35 53  1  0  0  0
M  CHG  1  27  -1
M  END
> <i_epik_Tot_Q>
-1

> <i_epik_Tot_abs_Q>
1

> <i_lp_mmshare_version>
62121

> <i_m_Source_File_Index>
22

> <i_phase_Input_Structure_Number>
38

> <i_phase_Reference_Structure>
41

> <i_phase_Structure_Number>
38

> <Molecule Name>
50

> <Rotatable Bonds>
7

> <i_f3d_flags>
0

> <b_lp_Chiralities_Consistent>
1

> <r_canvas_IC50_human_P2Y14R,_nM>
899

> <r_canvas_pIC50>
6.04624030826677

> <r_epik_Charging_Adjusted_Penalty>
0.000166961650298847

> <r_epik_Ionization_Penalty>
  0.0002

> <r_epik_Ionization_Penalty_Charging>
  0.0002

> <r_epik_Ionization_Penalty_Neutral>
  0.0000

> <r_epik_State_Penalty>
  0.0000

> <r_lp_Energy>
46.669742

> <r_lp_tautomer_probability>
1

> <r_phase_Similarity_to_Reference>
0.834622522730628

> <s_canvas_CHEMBLID>
CHEMBL4872737

> <s_canvas_Compound>
32

> <s_canvas_Paper>
Yu2018

> <s_epik_cmdline>
J2VwaWtfcHl0aG9uJywgJy1waCcsICc3LjAnLCAnLXRuJywgJzgnLCAnLW1hJywgJzUwMCcsICctaW1hZScsICc8aW5maWxlLm1hZT4nLCAnLW9tYWUnLCAnPG91dGZpbGUubWFlPic=

> <s_epik_input>
RkMoRikoRiljMVtjSF1bY0hdYyhbY0hdW2NIXTEpLWMybm5uKFtjSF0yKS1jM1tjSF1jKFtjSF1jKFtjSF0zKUMoPU8pW09IXSktYzRbY0hdW2NIXWMoW2NIXVtjSF00KUMoPU8pW05IXVtDSDJdW0NIM10=

> <s_lp_Force_Field>
S-OPLS

> <s_lp_Variant>
50-1

> <s_m_Source_File>
database-aligned.sdf

> <s_m_Source_Path>
/data/matteo/P2Y14-antagonists-piperidineDerivatives-Wen2023/14052024-optimized-alignment

> <s_m_entry_id>
22

> <s_m_entry_name>
database-aligned.22

> <s_m_job_name>
align_ligands_1

> <s_phase_Alignment_Method>
snapped core

> <s_phase_Alignment_Reason>


> <s_phase_Core_SMARTS>
a1aaaaa1-a2aa(aa2)-a3aaaa(a3)-a4aaaaa4

$$$$
51
                    3D
 Schrodinger Suite 2023-2.
 56 59  0  0  1  0            999 V2000
   -4.8466   -3.4241    1.6134 F   0  0  0  0  0  0
   -5.0120   -2.1173    1.8111 C   0  0  0  0  0  0
   -5.9312   -1.6407    0.9732 F   0  0  0  0  0  0
   -5.3787   -1.8881    3.0709 F   0  0  0  0  0  0
   -3.7102   -1.4192    1.5505 C   0  0  0  0  0  0
   -3.7049   -0.1126    1.0769 C   0  0  0  0  0  0
   -2.5092   -2.0790    1.7828 C   0  0  0  0  0  0
   -2.4987    0.5343    0.8355 C   0  0  0  0  0  0
   -1.3030   -1.4321    1.5414 C   0  0  0  0  0  0
   -1.2977   -0.1255    1.0677 C   0  0  0  0  0  0
    0.0041    0.5726    0.8072 C   0  0  0  0  0  0
    0.0745    1.8131    0.3572 N   0  0  0  0  0  0
    1.2788    0.0570    0.9868 C   0  0  0  0  0  0
    1.4087    2.1505    0.2272 N   0  0  0  0  0  0
    2.1133    1.0787    0.6116 N   0  0  0  0  0  0
    3.5729    1.0430    0.6162 C   0  0  0  0  0  0
    4.2688   -0.0378   -0.0014 C   0  0  0  0  0  0
    4.3095    2.0826    1.2307 C   0  0  0  0  0  0
    5.6959   -0.0428    0.0147 C   0  0  0  0  0  0
    5.7140    2.0823    1.2549 C   0  0  0  0  0  0
    6.4845   -1.1328   -0.6109 C   0  0  0  0  0  0
    6.3738    1.0063    0.6388 C   0  0  0  0  0  0
    6.4824    3.1926    1.9177 C   0  0  0  0  0  0
    6.8885   -2.2318    0.1496 C   0  0  0  0  0  0
    6.8196   -1.0713   -1.9653 C   0  0  0  0  0  0
    7.7329    3.1460    1.9172 O   0  0  0  0  0  0
    5.8483    4.1301    2.4513 O   0  5  0  0  0  0
    7.6134   -3.2639   -0.4389 C   0  0  0  0  0  0
    7.5469   -2.1010   -2.5562 C   0  0  0  0  0  0
    7.9469   -3.2050   -1.7964 C   0  0  0  0  0  0
    8.7078   -4.3233   -2.4504 C   0  0  0  0  0  0
    8.5009   -4.6240   -3.6265 O   0  0  0  0  0  0
    9.6399   -4.9128   -1.6830 N   0  0  0  0  0  0
   10.5148   -6.0059   -2.0958 C   0  0  0  0  0  0
   10.0520   -7.3590   -1.5290 C   0  0  0  0  0  0
    8.6847   -7.8207   -2.0521 C   0  0  0  0  0  0
   -4.6330    0.4109    0.9006 H   0  0  0  0  0  0
   -2.5039   -3.0918    2.1578 H   0  0  0  0  0  0
   -2.5151    1.5503    0.4692 H   0  0  0  0  0  0
   -0.3799   -1.9596    1.7290 H   0  0  0  0  0  0
    1.6397   -0.8998    1.3335 H   0  0  0  0  0  0
    3.7256   -0.8399   -0.4794 H   0  0  0  0  0  0
    3.7663    2.8932    1.6951 H   0  0  0  0  0  0
    7.4543    0.9792    0.6403 H   0  0  0  0  0  0
    6.6315   -2.2877    1.1975 H   0  0  0  0  0  0
    6.5103   -0.2245   -2.5607 H   0  0  0  0  0  0
    7.9019   -4.1109    0.1667 H   0  0  0  0  0  0
    7.7931   -2.0379   -3.6064 H   0  0  0  0  0  0
    9.7496   -4.5770   -0.7371 H   0  0  0  0  0  0
   10.5994   -6.0592   -3.1825 H   0  0  0  0  0  0
   11.5162   -5.7844   -1.7263 H   0  0  0  0  0  0
   10.7959   -8.1158   -1.7796 H   0  0  0  0  0  0
   10.0254   -7.3116   -0.4396 H   0  0  0  0  0  0
    8.4408   -8.8131   -1.6728 H   0  0  0  0  0  0
    8.6765   -7.8699   -3.1412 H   0  0  0  0  0  0
    7.8876   -7.1456   -1.7403 H   0  0  0  0  0  0
  1  2  1  0  0  0
  2  3  1  0  0  0
  2  4  1  0  0  0
  2  5  1  0  0  0
  5  6  2  0  0  0
  5  7  1  0  0  0
  6  8  1  0  0  0
  6 37  1  0  0  0
  7  9  2  0  0  0
  7 38  1  0  0  0
  8 10  2  0  0  0
  8 39  1  0  0  0
  9 10  1  0  0  0
  9 40  1  0  0  0
 10 11  1  0  0  0
 11 12  1  0  0  0
 11 13  2  0  0  0
 12 14  2  0  0  0
 13 15  1  0  0  0
 13 41  1  0  0  0
 14 15  1  0  0  0
 15 16  1  0  0  0
 16 17  2  0  0  0
 16 18  1  0  0  0
 17 19  1  0  0  0
 17 42  1  0  0  0
 18 20  2  0  0  0
 18 43  1  0  0  0
 19 21  1  0  0  0
 19 22  2  0  0  0
 20 23  1  0  0  0
 20 22  1  0  0  0
 21 24  2  0  0  0
 21 25  1  0  0  0
 22 44  1  0  0  0
 23 26  2  0  0  0
 23 27  1  0  0  0
 24 28  1  0  0  0
 24 45  1  0  0  0
 25 29  2  0  0  0
 25 46  1  0  0  0
 28 30  2  0  0  0
 28 47  1  0  0  0
 29 30  1  0  0  0
 29 48  1  0  0  0
 30 31  1  0  0  0
 31 32  2  0  0  0
 31 33  1  0  0  0
 33 34  1  0  0  0
 33 49  1  0  0  0
 34 35  1  0  0  0
 34 50  1  0  0  0
 34 51  1  0  0  0
 35 36  1  0  0  0
 35 52  1  0  0  0
 35 53  1  0  0  0
 36 54  1  0  0  0
 36 55  1  0  0  0
 36 56  1  0  0  0
M  CHG  1  27  -1
M  END
> <i_epik_Tot_Q>
-1

> <i_epik_Tot_abs_Q>
1

> <i_lp_mmshare_version>
62121

> <i_m_Source_File_Index>
23

> <i_phase_Input_Structure_Number>
39

> <i_phase_Reference_Structure>
41

> <i_phase_Structure_Number>
39

> <Molecule Name>
51

> <Rotatable Bonds>
8

> <i_f3d_flags>
0

> <b_lp_Chiralities_Consistent>
1

> <r_canvas_IC50_human_P2Y14R,_nM>
1490

> <r_canvas_pIC50>
5.82681373158773

> <r_epik_Charging_Adjusted_Penalty>
0.000166961650298847

> <r_epik_Ionization_Penalty>
  0.0002

> <r_epik_Ionization_Penalty_Charging>
  0.0002

> <r_epik_Ionization_Penalty_Neutral>
  0.0000

> <r_epik_State_Penalty>
  0.0000

> <r_lp_Energy>
47.318602

> <r_lp_tautomer_probability>
1

> <r_phase_Similarity_to_Reference>
0.840017278099895

> <s_canvas_CHEMBLID>
CHEMBL4872692

> <s_canvas_Compound>
33

> <s_canvas_Paper>
Yu2018

> <s_epik_cmdline>
J2VwaWtfcHl0aG9uJywgJy1waCcsICc3LjAnLCAnLXRuJywgJzgnLCAnLW1hJywgJzUwMCcsICctaW1hZScsICc8aW5maWxlLm1hZT4nLCAnLW9tYWUnLCAnPG91dGZpbGUubWFlPic=

> <s_epik_input>
RkMoRikoRiljMVtjSF1bY0hdYyhbY0hdW2NIXTEpLWMybm5uKFtjSF0yKS1jM1tjSF1jKFtjSF1jKFtjSF0zKUMoPU8pW09IXSktYzRbY0hdW2NIXWMoW2NIXVtjSF00KUMoPU8pW05IXVtDSDJdW0NIMl1bQ0gzXQ==

> <s_lp_Force_Field>
S-OPLS

> <s_lp_Variant>
51-1

> <s_m_Source_File>
database-aligned.sdf

> <s_m_Source_Path>
/data/matteo/P2Y14-antagonists-piperidineDerivatives-Wen2023/14052024-optimized-alignment

> <s_m_entry_id>
23

> <s_m_entry_name>
database-aligned.23

> <s_m_job_name>
align_ligands_1

> <s_phase_Alignment_Method>
snapped core

> <s_phase_Alignment_Reason>


> <s_phase_Core_SMARTS>
a1aaaaa1-a2aa(aa2)-a3aaaa(a3)-a4aaaaa4

$$$$
52
                    3D
 Schrodinger Suite 2023-2.
 59 62  0  0  1  0            999 V2000
   -4.8466   -3.4241    1.6134 F   0  0  0  0  0  0
   -5.0120   -2.1173    1.8111 C   0  0  0  0  0  0
   -5.9312   -1.6407    0.9732 F   0  0  0  0  0  0
   -5.3787   -1.8881    3.0709 F   0  0  0  0  0  0
   -3.7102   -1.4192    1.5505 C   0  0  0  0  0  0
   -3.7049   -0.1126    1.0769 C   0  0  0  0  0  0
   -2.5092   -2.0790    1.7828 C   0  0  0  0  0  0
   -2.4987    0.5343    0.8355 C   0  0  0  0  0  0
   -1.3030   -1.4321    1.5414 C   0  0  0  0  0  0
   -1.2977   -0.1255    1.0677 C   0  0  0  0  0  0
    0.0041    0.5726    0.8072 C   0  0  0  0  0  0
    0.0745    1.8131    0.3572 N   0  0  0  0  0  0
    1.2788    0.0570    0.9868 C   0  0  0  0  0  0
    1.4087    2.1505    0.2272 N   0  0  0  0  0  0
    2.1133    1.0787    0.6116 N   0  0  0  0  0  0
    3.5729    1.0430    0.6162 C   0  0  0  0  0  0
    4.2688   -0.0378   -0.0014 C   0  0  0  0  0  0
    4.3095    2.0826    1.2307 C   0  0  0  0  0  0
    5.6959   -0.0428    0.0147 C   0  0  0  0  0  0
    5.7140    2.0823    1.2549 C   0  0  0  0  0  0
    6.4845   -1.1328   -0.6109 C   0  0  0  0  0  0
    6.3738    1.0063    0.6388 C   0  0  0  0  0  0
    6.4824    3.1926    1.9177 C   0  0  0  0  0  0
    6.8885   -2.2318    0.1496 C   0  0  0  0  0  0
    6.8196   -1.0713   -1.9653 C   0  0  0  0  0  0
    7.7329    3.1460    1.9172 O   0  0  0  0  0  0
    5.8483    4.1301    2.4513 O   0  5  0  0  0  0
    7.6134   -3.2639   -0.4389 C   0  0  0  0  0  0
    7.5469   -2.1010   -2.5562 C   0  0  0  0  0  0
    7.9469   -3.2050   -1.7964 C   0  0  0  0  0  0
    8.6946   -4.3308   -2.4549 C   0  0  0  0  0  0
    8.5053   -4.5983   -3.6415 O   0  0  0  0  0  0
    9.5907   -4.9623   -1.6734 N   0  0  0  0  0  0
   10.4674   -6.0887   -2.0144 C   0  0  0  0  0  0
   11.2775   -6.4234   -0.7494 C   0  0  0  0  0  0
   11.4417   -5.6993   -3.1458 C   0  0  0  0  0  0
    9.6335   -7.3234   -2.4161 C   0  0  0  0  0  0
   -4.6329    0.4111    0.9008 H   0  0  0  0  0  0
   -2.5036   -3.0917    2.1582 H   0  0  0  0  0  0
   -2.5155    1.5504    0.4694 H   0  0  0  0  0  0
   -0.3800   -1.9596    1.7293 H   0  0  0  0  0  0
    1.6397   -0.8998    1.3334 H   0  0  0  0  0  0
    3.7255   -0.8398   -0.4794 H   0  0  0  0  0  0
    3.7661    2.8932    1.6948 H   0  0  0  0  0  0
    7.4543    0.9791    0.6399 H   0  0  0  0  0  0
    6.6309   -2.2880    1.1973 H   0  0  0  0  0  0
    6.5104   -0.2245   -2.5607 H   0  0  0  0  0  0
    7.8987   -4.1113    0.1676 H   0  0  0  0  0  0
    7.7912   -2.0382   -3.6069 H   0  0  0  0  0  0
    9.6668   -4.6271   -0.7239 H   0  0  0  0  0  0
   11.9555   -7.2602   -0.9213 H   0  0  0  0  0  0
   10.6251   -6.6966    0.0811 H   0  0  0  0  0  0
   11.8816   -5.5742   -0.4273 H   0  0  0  0  0  0
   12.0115   -4.8056   -2.8891 H   0  0  0  0  0  0
   10.9242   -5.5027   -4.0845 H   0  0  0  0  0  0
   12.1572   -6.4992   -3.3389 H   0  0  0  0  0  0
   10.2733   -8.1911   -2.5813 H   0  0  0  0  0  0
    9.0753   -7.1593   -3.3379 H   0  0  0  0  0  0
    8.9155   -7.5889   -1.6388 H   0  0  0  0  0  0
  1  2  1  0  0  0
  2  3  1  0  0  0
  2  4  1  0  0  0
  2  5  1  0  0  0
  5  6  2  0  0  0
  5  7  1  0  0  0
  6  8  1  0  0  0
  6 38  1  0  0  0
  7  9  2  0  0  0
  7 39  1  0  0  0
  8 10  2  0  0  0
  8 40  1  0  0  0
  9 10  1  0  0  0
  9 41  1  0  0  0
 10 11  1  0  0  0
 11 12  1  0  0  0
 11 13  2  0  0  0
 12 14  2  0  0  0
 13 15  1  0  0  0
 13 42  1  0  0  0
 14 15  1  0  0  0
 15 16  1  0  0  0
 16 17  2  0  0  0
 16 18  1  0  0  0
 17 19  1  0  0  0
 17 43  1  0  0  0
 18 20  2  0  0  0
 18 44  1  0  0  0
 19 21  1  0  0  0
 19 22  2  0  0  0
 20 23  1  0  0  0
 20 22  1  0  0  0
 21 24  2  0  0  0
 21 25  1  0  0  0
 22 45  1  0  0  0
 23 26  2  0  0  0
 23 27  1  0  0  0
 24 28  1  0  0  0
 24 46  1  0  0  0
 25 29  2  0  0  0
 25 47  1  0  0  0
 28 30  2  0  0  0
 28 48  1  0  0  0
 29 30  1  0  0  0
 29 49  1  0  0  0
 30 31  1  0  0  0
 31 32  2  0  0  0
 31 33  1  0  0  0
 33 34  1  0  0  0
 33 50  1  0  0  0
 34 35  1  0  0  0
 34 36  1  0  0  0
 34 37  1  0  0  0
 35 51  1  0  0  0
 35 52  1  0  0  0
 35 53  1  0  0  0
 36 54  1  0  0  0
 36 55  1  0  0  0
 36 56  1  0  0  0
 37 57  1  0  0  0
 37 58  1  0  0  0
 37 59  1  0  0  0
M  CHG  1  27  -1
M  END
> <i_epik_Tot_Q>
-1

> <i_epik_Tot_abs_Q>
1

> <i_lp_mmshare_version>
62121

> <i_m_Source_File_Index>
24

> <i_phase_Input_Structure_Number>
40

> <i_phase_Reference_Structure>
41

> <i_phase_Structure_Number>
40

> <Molecule Name>
52

> <Rotatable Bonds>
7

> <i_f3d_flags>
0

> <b_lp_Chiralities_Consistent>
1

> <r_canvas_IC50_human_P2Y14R,_nM>
7530

> <r_canvas_pIC50>
5.1232050237993

> <r_epik_Charging_Adjusted_Penalty>
0.000166961650298847

> <r_epik_Ionization_Penalty>
  0.0002

> <r_epik_Ionization_Penalty_Charging>
  0.0002

> <r_epik_Ionization_Penalty_Neutral>
  0.0000

> <r_epik_State_Penalty>
  0.0000

> <r_lp_Energy>
47.284947

> <r_lp_tautomer_probability>
1

> <r_phase_Similarity_to_Reference>
0.852210639731357

> <s_canvas_CHEMBLID>
CHEMBL4870627

> <s_canvas_Compound>
34

> <s_canvas_Paper>
Yu2018

> <s_epik_cmdline>
J2VwaWtfcHl0aG9uJywgJy1waCcsICc3LjAnLCAnLXRuJywgJzgnLCAnLW1hJywgJzUwMCcsICctaW1hZScsICc8aW5maWxlLm1hZT4nLCAnLW9tYWUnLCAnPG91dGZpbGUubWFlPic=

> <s_epik_input>
RkMoRikoRiljMVtjSF1bY0hdYyhbY0hdW2NIXTEpLWMybm5uKFtjSF0yKS1jM1tjSF1jKFtjSF1jKFtjSF0zKUMoPU8pW09IXSktYzRbY0hdW2NIXWMoW2NIXVtjSF00KUMoPU8pW05IXUMoW0NIM10pKFtDSDNdKVtDSDNd

> <s_lp_Force_Field>
S-OPLS

> <s_lp_Variant>
52-1

> <s_m_Source_File>
database-aligned.sdf

> <s_m_Source_Path>
/data/matteo/P2Y14-antagonists-piperidineDerivatives-Wen2023/14052024-optimized-alignment

> <s_m_entry_id>
24

> <s_m_entry_name>
database-aligned.24

> <s_m_job_name>
align_ligands_1

> <s_phase_Alignment_Method>
snapped core

> <s_phase_Alignment_Reason>


> <s_phase_Core_SMARTS>
a1aaaaa1-a2aa(aa2)-a3aaaa(a3)-a4aaaaa4

$$$$
53
                    3D
 Schrodinger Suite 2023-2.
 61 66  0  0  1  0            999 V2000
   -4.8466   -3.4241    1.6134 F   0  0  0  0  0  0
   -5.0120   -2.1173    1.8111 C   0  0  0  0  0  0
   -5.9312   -1.6407    0.9732 F   0  0  0  0  0  0
   -5.3787   -1.8881    3.0709 F   0  0  0  0  0  0
   -3.7102   -1.4192    1.5505 C   0  0  0  0  0  0
   -3.7049   -0.1126    1.0769 C   0  0  0  0  0  0
   -2.5092   -2.0790    1.7828 C   0  0  0  0  0  0
   -2.4987    0.5343    0.8355 C   0  0  0  0  0  0
   -1.3030   -1.4321    1.5414 C   0  0  0  0  0  0
   -1.2977   -0.1255    1.0677 C   0  0  0  0  0  0
    0.0041    0.5726    0.8072 C   0  0  0  0  0  0
    0.0745    1.8131    0.3572 N   0  0  0  0  0  0
    1.2788    0.0570    0.9868 C   0  0  0  0  0  0
    1.4087    2.1505    0.2272 N   0  0  0  0  0  0
    2.1133    1.0787    0.6116 N   0  0  0  0  0  0
    3.5729    1.0430    0.6162 C   0  0  0  0  0  0
    4.2688   -0.0378   -0.0014 C   0  0  0  0  0  0
    4.3095    2.0826    1.2307 C   0  0  0  0  0  0
    5.6959   -0.0428    0.0147 C   0  0  0  0  0  0
    5.7140    2.0823    1.2549 C   0  0  0  0  0  0
    6.4845   -1.1328   -0.6109 C   0  0  0  0  0  0
    6.3738    1.0063    0.6388 C   0  0  0  0  0  0
    6.4802    3.1906    1.9141 C   0  0  0  0  0  0
    6.8196   -1.0713   -1.9653 C   0  0  0  0  0  0
    6.8885   -2.2318    0.1496 C   0  0  0  0  0  0
    7.6704    3.5687    1.5190 N   0  0  0  0  0  0
    6.0173    3.8655    2.9358 N   0  5  0  0  0  0
    7.5469   -2.1010   -2.5562 C   0  0  0  0  0  0
    7.6134   -3.2639   -0.4389 C   0  0  0  0  0  0
    8.0251    4.5906    2.3615 N   0  0  0  0  0  0
    6.9969    4.7754    3.2429 N   0  0  0  0  0  0
    7.9469   -3.2050   -1.7964 C   0  0  0  0  0  0
    8.7323   -4.3448   -2.4511 C   0  0  0  0  0  0
   10.1198   -4.5548   -1.7988 C   0  0  0  0  0  0
    7.9157   -5.6578   -2.4890 C   0  0  0  0  0  0
   10.9018   -5.7110   -2.4500 C   0  0  0  0  0  0
    8.6977   -6.8138   -3.1399 C   0  0  0  0  0  0
   10.0472   -6.9906   -2.4217 N   0  3  0  0  0  0
   -4.6400    0.4011    0.8961 H   0  0  0  0  0  0
   -2.5132   -3.0962    2.1516 H   0  0  0  0  0  0
   -2.4947    1.5515    0.4667 H   0  0  0  0  0  0
   -0.3679   -1.9458    1.7222 H   0  0  0  0  0  0
    1.6569   -0.8968    1.3303 H   0  0  0  0  0  0
    3.7045   -0.8299   -0.4721 H   0  0  0  0  0  0
    3.7833    2.9078    1.6880 H   0  0  0  0  0  0
    7.4533    0.9887    0.6647 H   0  0  0  0  0  0
    6.5121   -0.2305   -2.5700 H   0  0  0  0  0  0
    6.6547   -2.2872    1.2027 H   0  0  0  0  0  0
    7.7962   -2.0356   -3.6050 H   0  0  0  0  0  0
    7.9159   -4.1059    0.1662 H   0  0  0  0  0  0
    8.9040   -4.0365   -3.4848 H   0  0  0  0  0  0
   10.7193   -3.6505   -1.9145 H   0  0  0  0  0  0
   10.0228   -4.7550   -0.7306 H   0  0  0  0  0  0
    7.6168   -5.9592   -1.4837 H   0  0  0  0  0  0
    7.0078   -5.5085   -3.0753 H   0  0  0  0  0  0
   11.1354   -5.5239   -3.4992 H   0  0  0  0  0  0
   11.8211   -5.9485   -1.9139 H   0  0  0  0  0  0
    8.1815   -7.7705   -3.0540 H   0  0  0  0  0  0
    8.9332   -6.6251   -4.1885 H   0  0  0  0  0  0
   10.5608   -7.7450   -2.8555 H   0  0  0  0  0  0
    9.8811   -7.2592   -1.4620 H   0  0  0  0  0  0
  1  2  1  0  0  0
  2  3  1  0  0  0
  2  4  1  0  0  0
  2  5  1  0  0  0
  5  6  2  0  0  0
  5  7  1  0  0  0
  6  8  1  0  0  0
  6 39  1  0  0  0
  7  9  2  0  0  0
  7 40  1  0  0  0
  8 10  2  0  0  0
  8 41  1  0  0  0
  9 10  1  0  0  0
  9 42  1  0  0  0
 10 11  1  0  0  0
 11 12  1  0  0  0
 11 13  2  0  0  0
 12 14  2  0  0  0
 13 15  1  0  0  0
 13 43  1  0  0  0
 14 15  1  0  0  0
 15 16  1  0  0  0
 16 17  2  0  0  0
 16 18  1  0  0  0
 17 19  1  0  0  0
 17 44  1  0  0  0
 18 20  2  0  0  0
 18 45  1  0  0  0
 19 21  1  0  0  0
 19 22  2  0  0  0
 20 23  1  0  0  0
 20 22  1  0  0  0
 21 24  2  0  0  0
 21 25  1  0  0  0
 22 46  1  0  0  0
 23 26  2  0  0  0
 23 27  1  0  0  0
 24 28  1  0  0  0
 24 47  1  0  0  0
 25 29  2  0  0  0
 25 48  1  0  0  0
 26 30  1  0  0  0
 27 31  1  0  0  0
 28 32  2  0  0  0
 28 49  1  0  0  0
 29 32  1  0  0  0
 29 50  1  0  0  0
 30 31  2  0  0  0
 32 33  1  0  0  0
 33 34  1  0  0  0
 33 35  1  0  0  0
 33 51  1  0  0  0
 34 36  1  0  0  0
 34 52  1  0  0  0
 34 53  1  0  0  0
 35 37  1  0  0  0
 35 54  1  0  0  0
 35 55  1  0  0  0
 36 38  1  0  0  0
 36 56  1  0  0  0
 36 57  1  0  0  0
 37 38  1  0  0  0
 37 58  1  0  0  0
 37 59  1  0  0  0
 38 60  1  0  0  0
 38 61  1  0  0  0
M  CHG  2  27  -1  38   1
M  END
> <i_epik_Tot_Q>
0

> <i_epik_Tot_abs_Q>
2

> <i_lp_mmshare_version>
62121

> <i_m_Source_File_Index>
25

> <i_phase_Input_Structure_Number>
41

> <i_phase_Reference_Structure>
41

> <i_phase_Structure_Number>
41

> <Molecule Name>
53

> <Rotatable Bonds>
6

> <i_f3d_flags>
0

> <b_lp_Chiralities_Consistent>
1

> <r_canvas_IC50_human_P2Y14R,_nM>
958

> <r_canvas_pIC50>
6.01863449092146

> <r_epik_Charging_Adjusted_Penalty>
0.001483310654314

> <r_epik_Ionization_Penalty>
  0.0015

> <r_epik_Ionization_Penalty_Charging>
  0.0015

> <r_epik_Ionization_Penalty_Neutral>
  0.0000

> <r_epik_State_Penalty>
  0.0000

> <r_lp_Energy>
53.532837

> <r_lp_tautomer_probability>
1

> <r_phase_Similarity_to_Reference>
1

> <s_canvas_CHEMBLID>
CHEMBL4869802

> <s_canvas_Compound>
35

> <s_canvas_Paper>
Yu2018

> <s_epik_cmdline>
J2VwaWtfcHl0aG9uJywgJy1waCcsICc3LjAnLCAnLXRuJywgJzgnLCAnLW1hJywgJzUwMCcsICctaW1hZScsICc8aW5maWxlLm1hZT4nLCAnLW9tYWUnLCAnPG91dGZpbGUubWFlPic=

> <s_epik_input>
RkMoRikoRiljMVtjSF1bY0hdYyhbY0hdW2NIXTEpLWMybm5uKFtjSF0yKS1jM1tjSF1jKFtjSF1jKFtjSF0zKS1jNG5ubltuSF00KS1jNVtjSF1bY0hdYyhbY0hdW2NIXTUpW0NIXTZbQ0gyXVtDSDJdW05IXVtDSDJdW0NIMl02

> <s_lp_Force_Field>
S-OPLS

> <s_lp_Variant>
53-1

> <s_m_Source_File>
database-aligned.sdf

> <s_m_Source_Path>
/data/matteo/P2Y14-antagonists-piperidineDerivatives-Wen2023/14052024-optimized-alignment

> <s_m_entry_id>
25

> <s_m_entry_name>
database-aligned.25

> <s_m_job_name>
align_ligands_1

> <s_phase_Alignment_Method>


> <s_phase_Alignment_Reason>


> <s_phase_Core_SMARTS>


$$$$
54
                    3D
 Schrodinger Suite 2023-2.
 58 62  0  0  1  0            999 V2000
    8.0603   -1.5197   -0.1993 S   0  0  0  0  0  0
    6.4235   -1.1150   -0.6680 C   0  0  0  0  0  0
    8.1748   -2.7281   -1.4569 C   0  0  0  0  0  0
    5.6959   -0.0428    0.0147 C   0  0  0  0  0  0
    5.9991   -1.9132   -1.7012 C   0  0  0  0  0  0
    9.4532   -3.4590   -1.5798 C   0  0  0  0  0  0
    6.9945   -2.8307   -2.1497 C   0  0  0  0  0  0
    4.2688   -0.0378   -0.0014 C   0  0  0  0  0  0
    6.3738    1.0063    0.6388 C   0  0  0  0  0  0
   10.3290   -3.3756   -0.7183 O   0  0  0  0  0  0
    9.5923   -4.1895   -2.6972 N   0  0  0  0  0  0
    3.5729    1.0430    0.6162 C   0  0  0  0  0  0
    5.7140    2.0823    1.2549 C   0  0  0  0  0  0
   10.7839   -4.9502   -3.0596 C   0  0  0  0  0  0
    2.1133    1.0787    0.6116 N   0  0  0  0  0  0
    4.3095    2.0826    1.2307 C   0  0  0  0  0  0
    6.4802    3.1906    1.9141 C   0  0  0  0  0  0
   10.9015   -6.2813   -2.2898 C   0  0  0  0  0  0
    1.4087    2.1505    0.2272 N   0  0  0  0  0  0
    1.2788    0.0570    0.9868 C   0  0  0  0  0  0
    7.6704    3.5687    1.5190 N   0  0  0  0  0  0
    6.0173    3.8655    2.9358 N   0  5  0  0  0  0
    9.7151   -7.2411   -2.4844 C   0  0  0  0  0  0
    0.0745    1.8131    0.3572 N   0  0  0  0  0  0
    0.0041    0.5726    0.8072 C   0  0  0  0  0  0
    8.0251    4.5906    2.3615 N   0  0  0  0  0  0
    6.9969    4.7754    3.2429 N   0  0  0  0  0  0
    9.6375   -7.7434   -3.8671 N   0  3  0  0  0  0
   -1.2977   -0.1255    1.0677 C   0  0  0  0  0  0
   -1.3030   -1.4321    1.5414 C   0  0  0  0  0  0
   -2.4987    0.5343    0.8355 C   0  0  0  0  0  0
   -2.5092   -2.0790    1.7828 C   0  0  0  0  0  0
   -3.7049   -0.1126    1.0769 C   0  0  0  0  0  0
   -3.7102   -1.4192    1.5505 C   0  0  0  0  0  0
   -5.0120   -2.1173    1.8111 C   0  0  0  0  0  0
   -4.8466   -3.4241    1.6134 F   0  0  0  0  0  0
   -5.9312   -1.6407    0.9732 F   0  0  0  0  0  0
   -5.3787   -1.8881    3.0709 F   0  0  0  0  0  0
    5.0236   -1.8624   -2.1617 H   0  0  0  0  0  0
    6.8117   -3.5176   -2.9627 H   0  0  0  0  0  0
    3.7160   -0.8327   -0.4799 H   0  0  0  0  0  0
    7.4533    1.0099    0.6416 H   0  0  0  0  0  0
    8.8305   -4.1855   -3.3599 H   0  0  0  0  0  0
   10.7519   -5.1396   -4.1324 H   0  0  0  0  0  0
   11.6732   -4.3410   -2.8880 H   0  0  0  0  0  0
    3.7722    2.8977    1.6933 H   0  0  0  0  0  0
   11.8253   -6.7828   -2.5805 H   0  0  0  0  0  0
   11.0072   -6.0676   -1.2255 H   0  0  0  0  0  0
    1.6390   -0.8998    1.3337 H   0  0  0  0  0  0
    9.8266   -8.0984   -1.8200 H   0  0  0  0  0  0
    8.7727   -6.7605   -2.2203 H   0  0  0  0  0  0
    8.8562   -8.3779   -3.9514 H   0  0  0  0  0  0
   10.4919   -8.2299   -4.0983 H   0  0  0  0  0  0
   -0.3801   -1.9597    1.7293 H   0  0  0  0  0  0
   -2.5159    1.5503    0.4693 H   0  0  0  0  0  0
   -2.5038   -3.0913    2.1589 H   0  0  0  0  0  0
   -4.6329    0.4112    0.9017 H   0  0  0  0  0  0
    9.5100   -6.9674   -4.5010 H   0  0  0  0  0  0
  1  2  1  0  0  0
  1  3  1  0  0  0
  2  4  1  0  0  0
  2  5  2  0  0  0
  3  6  1  0  0  0
  3  7  2  0  0  0
  4  8  2  0  0  0
  4  9  1  0  0  0
  5  7  1  0  0  0
  5 39  1  0  0  0
  6 10  2  0  0  0
  6 11  1  0  0  0
  7 40  1  0  0  0
  8 12  1  0  0  0
  8 41  1  0  0  0
  9 13  2  0  0  0
  9 42  1  0  0  0
 11 14  1  0  0  0
 11 43  1  0  0  0
 12 15  1  0  0  0
 12 16  2  0  0  0
 13 17  1  0  0  0
 13 16  1  0  0  0
 14 18  1  0  0  0
 14 44  1  0  0  0
 14 45  1  0  0  0
 15 19  1  0  0  0
 15 20  1  0  0  0
 16 46  1  0  0  0
 17 21  2  0  0  0
 17 22  1  0  0  0
 18 23  1  0  0  0
 18 47  1  0  0  0
 18 48  1  0  0  0
 19 24  2  0  0  0
 20 25  2  0  0  0
 20 49  1  0  0  0
 21 26  1  0  0  0
 22 27  1  0  0  0
 23 28  1  0  0  0
 23 50  1  0  0  0
 23 51  1  0  0  0
 24 25  1  0  0  0
 25 29  1  0  0  0
 26 27  2  0  0  0
 28 52  1  0  0  0
 28 53  1  0  0  0
 28 58  1  0  0  0
 29 30  2  0  0  0
 29 31  1  0  0  0
 30 32  1  0  0  0
 30 54  1  0  0  0
 31 33  2  0  0  0
 31 55  1  0  0  0
 32 34  2  0  0  0
 32 56  1  0  0  0
 33 34  1  0  0  0
 33 57  1  0  0  0
 34 35  1  0  0  0
 35 36  1  0  0  0
 35 37  1  0  0  0
 35 38  1  0  0  0
M  CHG  2  22  -1  28   1
M  END
> <i_epik_Tot_Q>
0

> <i_epik_Tot_abs_Q>
2

> <i_lp_mmshare_version>
62121

> <i_m_Source_File_Index>
26

> <i_phase_Input_Structure_Number>
42

> <i_phase_Reference_Structure>
41

> <i_phase_Structure_Number>
42

> <Molecule Name>
54

> <Rotatable Bonds>
9

> <i_f3d_flags>
0

> <b_lp_Chiralities_Consistent>
1

> <r_canvas_IC50_human_P2Y14R,_nM>
1190

> <r_canvas_pIC50>
5.92445303860747

> <r_epik_Charging_Adjusted_Penalty>
0.00193818412373205

> <r_epik_Ionization_Penalty>
  0.0019

> <r_epik_Ionization_Penalty_Charging>
  0.0019

> <r_epik_Ionization_Penalty_Neutral>
  0.0000

> <r_epik_State_Penalty>
  0.0000

> <r_lp_Energy>
42.604519

> <r_lp_tautomer_probability>
1

> <r_phase_Similarity_to_Reference>
0.820520992547921

> <s_canvas_CHEMBLID>
CHEMBL4869611

> <s_canvas_Compound>
36a

> <s_canvas_Paper>
Yu2018

> <s_epik_cmdline>
J2VwaWtfcHl0aG9uJywgJy1waCcsICc3LjAnLCAnLXRuJywgJzgnLCAnLW1hJywgJzUwMCcsICctaW1hZScsICc8aW5maWxlLm1hZT4nLCAnLW9tYWUnLCAnPG91dGZpbGUubWFlPic=

> <s_epik_input>
W05IMl1bQ0gyXVtDSDJdW0NIMl1bTkhdQyg9TyljKFtjSF1bY0hdMSlzYzEtYzJbY0hdYyhbY0hdYyhbY0hdMiktYzNubm5bbkhdMyktbjRubmMoW2NIXTQpLWM1W2NIXVtjSF1jKEMoRikoRilGKVtjSF1bY0hdNQ==

> <s_lp_Force_Field>
S-OPLS

> <s_lp_Variant>
54-1

> <s_m_Source_File>
database-aligned.sdf

> <s_m_Source_Path>
/data/matteo/P2Y14-antagonists-piperidineDerivatives-Wen2023/14052024-optimized-alignment

> <s_m_entry_id>
26

> <s_m_entry_name>
database-aligned.26

> <s_m_job_name>
align_ligands_1

> <s_phase_Alignment_Method>
snapped core

> <s_phase_Alignment_Reason>


> <s_phase_Core_SMARTS>
a1aaaa1-a2aaaa(a2)-a3aa(aa3)-a4aaaaa4

$$$$
55
                    3D
 Schrodinger Suite 2023-2.
 49 53  0  0  1  0            999 V2000
   -4.8466   -3.4241    1.6134 F   0  0  0  0  0  0
   -5.0120   -2.1173    1.8111 C   0  0  0  0  0  0
   -5.9312   -1.6407    0.9732 F   0  0  0  0  0  0
   -5.3787   -1.8881    3.0709 F   0  0  0  0  0  0
   -3.7102   -1.4192    1.5505 C   0  0  0  0  0  0
   -3.7049   -0.1126    1.0769 C   0  0  0  0  0  0
   -2.5092   -2.0790    1.7828 C   0  0  0  0  0  0
   -2.4987    0.5343    0.8355 C   0  0  0  0  0  0
   -1.3030   -1.4321    1.5414 C   0  0  0  0  0  0
   -1.2977   -0.1255    1.0677 C   0  0  0  0  0  0
    0.0041    0.5726    0.8072 C   0  0  0  0  0  0
    0.0745    1.8131    0.3572 N   0  0  0  0  0  0
    1.2788    0.0570    0.9868 C   0  0  0  0  0  0
    1.4087    2.1505    0.2272 N   0  0  0  0  0  0
    2.1133    1.0787    0.6116 N   0  0  0  0  0  0
    3.5729    1.0430    0.6162 C   0  0  0  0  0  0
    4.2688   -0.0378   -0.0014 C   0  0  0  0  0  0
    4.3095    2.0826    1.2307 C   0  0  0  0  0  0
    5.6959   -0.0428    0.0147 C   0  0  0  0  0  0
    5.7140    2.0823    1.2549 C   0  0  0  0  0  0
    6.4845   -1.1328   -0.6109 C   0  0  0  0  0  0
    6.3738    1.0063    0.6388 C   0  0  0  0  0  0
    6.4802    3.1906    1.9141 C   0  0  0  0  0  0
    6.8196   -1.0713   -1.9653 C   0  0  0  0  0  0
    6.8885   -2.2318    0.1496 C   0  0  0  0  0  0
    6.0173    3.8655    2.9358 N   0  0  0  0  0  0
    7.6704    3.5687    1.5190 N   0  5  0  0  0  0
    7.5469   -2.1010   -2.5562 C   0  0  0  0  0  0
    7.6134   -3.2639   -0.4389 C   0  0  0  0  0  0
    6.9969    4.7754    3.2429 N   0  0  0  0  0  0
    8.0251    4.5906    2.3615 N   0  0  0  0  0  0
    7.9469   -3.2050   -1.7964 C   0  0  0  0  0  0
    8.7028   -4.3255   -2.4546 C   0  0  0  0  0  0
    8.5417   -4.5942   -3.6438 O   0  0  0  0  0  0
    9.5941   -4.9653   -1.6911 N   0  0  0  0  0  0
   -4.6334    0.4100    0.8999 H   0  0  0  0  0  0
   -2.5038   -3.0921    2.1573 H   0  0  0  0  0  0
   -2.5156    1.5503    0.4690 H   0  0  0  0  0  0
   -0.3800   -1.9597    1.7291 H   0  0  0  0  0  0
    1.6392   -0.8996    1.3338 H   0  0  0  0  0  0
    3.7255   -0.8403   -0.4785 H   0  0  0  0  0  0
    3.7723    2.8981    1.6931 H   0  0  0  0  0  0
    7.4542    0.9835    0.6474 H   0  0  0  0  0  0
    6.5108   -0.2243   -2.5607 H   0  0  0  0  0  0
    6.6308   -2.2882    1.1973 H   0  0  0  0  0  0
    7.7920   -2.0380   -3.6067 H   0  0  0  0  0  0
    7.9002   -4.1113    0.1671 H   0  0  0  0  0  0
    9.7148   -4.6972   -0.7254 H   0  0  0  0  0  0
   10.1469   -5.7124   -2.0859 H   0  0  0  0  0  0
  1  2  1  0  0  0
  2  3  1  0  0  0
  2  4  1  0  0  0
  2  5  1  0  0  0
  5  6  2  0  0  0
  5  7  1  0  0  0
  6  8  1  0  0  0
  6 36  1  0  0  0
  7  9  2  0  0  0
  7 37  1  0  0  0
  8 10  2  0  0  0
  8 38  1  0  0  0
  9 10  1  0  0  0
  9 39  1  0  0  0
 10 11  1  0  0  0
 11 12  1  0  0  0
 11 13  2  0  0  0
 12 14  2  0  0  0
 13 15  1  0  0  0
 13 40  1  0  0  0
 14 15  1  0  0  0
 15 16  1  0  0  0
 16 17  2  0  0  0
 16 18  1  0  0  0
 17 19  1  0  0  0
 17 41  1  0  0  0
 18 20  2  0  0  0
 18 42  1  0  0  0
 19 21  1  0  0  0
 19 22  2  0  0  0
 20 23  1  0  0  0
 20 22  1  0  0  0
 21 24  2  0  0  0
 21 25  1  0  0  0
 22 43  1  0  0  0
 23 26  2  0  0  0
 23 27  1  0  0  0
 24 28  1  0  0  0
 24 44  1  0  0  0
 25 29  2  0  0  0
 25 45  1  0  0  0
 26 30  1  0  0  0
 27 31  1  0  0  0
 28 32  2  0  0  0
 28 46  1  0  0  0
 29 32  1  0  0  0
 29 47  1  0  0  0
 30 31  2  0  0  0
 32 33  1  0  0  0
 33 34  2  0  0  0
 33 35  1  0  0  0
 35 48  1  0  0  0
 35 49  1  0  0  0
M  CHG  1  27  -1
M  END
> <i_epik_Tot_Q>
-1

> <i_epik_Tot_abs_Q>
1

> <i_lp_mmshare_version>
62121

> <i_m_Source_File_Index>
27

> <i_phase_Input_Structure_Number>
43

> <i_phase_Reference_Structure>
41

> <i_phase_Structure_Number>
43

> <Molecule Name>
55

> <Rotatable Bonds>
6

> <i_f3d_flags>
0

> <b_lp_Chiralities_Consistent>
1

> <r_canvas_IC50_human_P2Y14R,_nM>
2430

> <r_canvas_pIC50>
5.61439372640169

> <r_epik_Charging_Adjusted_Penalty>
0.00157158068015428

> <r_epik_Ionization_Penalty>
  0.0009

> <r_epik_Ionization_Penalty_Charging>
  0.0009

> <r_epik_Ionization_Penalty_Neutral>
  0.0000

> <r_epik_State_Penalty>
  0.0006

> <r_lp_Energy>
43.008555

> <r_lp_tautomer_probability>
1

> <r_phase_Similarity_to_Reference>
0.857202852914679

> <s_canvas_CHEMBLID>
CHEMBL4868823

> <s_canvas_Compound>
36b

> <s_canvas_Paper>
Yu2018

> <s_epik_cmdline>
J2VwaWtfcHl0aG9uJywgJy1waCcsICc3LjAnLCAnLXRuJywgJzgnLCAnLW1hJywgJzUwMCcsICctaW1hZScsICc8aW5maWxlLm1hZT4nLCAnLW9tYWUnLCAnPG91dGZpbGUubWFlPic=

> <s_epik_input>
RkMoRikoRiljMVtjSF1bY0hdYyhbY0hdW2NIXTEpLWMybm5uKFtjSF0yKS1jM1tjSF1jKC1jNFtjSF1bY0hdYyhbY0hdW2NIXTQpQyg9TylbTkgyXSlbY0hdYyhbY0hdMyktYzVubm5bbkhdNQ==

> <s_lp_Force_Field>
S-OPLS

> <s_lp_Variant>
55-1

> <s_m_Source_File>
database-aligned.sdf

> <s_m_Source_Path>
/data/matteo/P2Y14-antagonists-piperidineDerivatives-Wen2023/14052024-optimized-alignment

> <s_m_entry_id>
27

> <s_m_entry_name>
database-aligned.27

> <s_m_job_name>
align_ligands_1

> <s_phase_Alignment_Method>
snapped core

> <s_phase_Alignment_Reason>


> <s_phase_Core_SMARTS>
a1aaaaa1-a2aa(aa2)-a3aa(-a4[a]aaa4)aa(a3)-a5aaaaa5

$$$$
56
                    3D
 Schrodinger Suite 2023-2.
 61 65  0  0  1  0            999 V2000
   -4.8466   -3.4241    1.6134 F   0  0  0  0  0  0
   -5.0120   -2.1173    1.8111 C   0  0  0  0  0  0
   -5.9312   -1.6407    0.9732 F   0  0  0  0  0  0
   -5.3787   -1.8881    3.0709 F   0  0  0  0  0  0
   -3.7102   -1.4192    1.5505 C   0  0  0  0  0  0
   -3.7049   -0.1126    1.0769 C   0  0  0  0  0  0
   -2.5092   -2.0790    1.7828 C   0  0  0  0  0  0
   -2.4987    0.5343    0.8355 C   0  0  0  0  0  0
   -1.3030   -1.4321    1.5414 C   0  0  0  0  0  0
   -1.2977   -0.1255    1.0677 C   0  0  0  0  0  0
    0.0041    0.5726    0.8072 C   0  0  0  0  0  0
    0.0745    1.8131    0.3572 N   0  0  0  0  0  0
    1.2788    0.0570    0.9868 C   0  0  0  0  0  0
    1.4087    2.1505    0.2272 N   0  0  0  0  0  0
    2.1133    1.0787    0.6116 N   0  0  0  0  0  0
    3.5729    1.0430    0.6162 C   0  0  0  0  0  0
    4.2688   -0.0378   -0.0014 C   0  0  0  0  0  0
    4.3095    2.0826    1.2307 C   0  0  0  0  0  0
    5.6959   -0.0428    0.0147 C   0  0  0  0  0  0
    5.7140    2.0823    1.2549 C   0  0  0  0  0  0
    6.4845   -1.1328   -0.6109 C   0  0  0  0  0  0
    6.3738    1.0063    0.6388 C   0  0  0  0  0  0
    6.4802    3.1906    1.9141 C   0  0  0  0  0  0
    6.8196   -1.0713   -1.9653 C   0  0  0  0  0  0
    6.8885   -2.2318    0.1496 C   0  0  0  0  0  0
    7.6704    3.5687    1.5190 N   0  0  0  0  0  0
    6.0173    3.8655    2.9358 N   0  5  0  0  0  0
    7.5469   -2.1010   -2.5562 C   0  0  0  0  0  0
    7.6134   -3.2639   -0.4389 C   0  0  0  0  0  0
    8.0251    4.5906    2.3615 N   0  0  0  0  0  0
    6.9969    4.7754    3.2429 N   0  0  0  0  0  0
    7.9469   -3.2050   -1.7964 C   0  0  0  0  0  0
    8.6946   -4.3308   -2.4549 C   0  0  0  0  0  0
    8.5053   -4.5983   -3.6415 O   0  0  0  0  0  0
    9.5907   -4.9623   -1.6734 N   0  0  0  0  0  0
   10.4674   -6.0887   -2.0144 C   0  0  0  0  0  0
   11.2775   -6.4234   -0.7494 C   0  0  0  0  0  0
   11.4417   -5.6993   -3.1458 C   0  0  0  0  0  0
    9.6335   -7.3234   -2.4161 C   0  0  0  0  0  0
   -4.6328    0.4114    0.9009 H   0  0  0  0  0  0
   -2.5030   -3.0916    2.1585 H   0  0  0  0  0  0
   -2.5154    1.5504    0.4692 H   0  0  0  0  0  0
   -0.3799   -1.9594    1.7292 H   0  0  0  0  0  0
    1.6392   -0.9001    1.3333 H   0  0  0  0  0  0
    3.7255   -0.8401   -0.4789 H   0  0  0  0  0  0
    3.7723    2.8979    1.6934 H   0  0  0  0  0  0
    7.4542    0.9838    0.6468 H   0  0  0  0  0  0
    6.5108   -0.2242   -2.5606 H   0  0  0  0  0  0
    6.6313   -2.2879    1.1974 H   0  0  0  0  0  0
    7.7917   -2.0381   -3.6066 H   0  0  0  0  0  0
    7.8991   -4.1109    0.1675 H   0  0  0  0  0  0
    9.6681   -4.6265   -0.7245 H   0  0  0  0  0  0
   11.9555   -7.2602   -0.9213 H   0  0  0  0  0  0
   10.6251   -6.6966    0.0811 H   0  0  0  0  0  0
   11.8816   -5.5742   -0.4273 H   0  0  0  0  0  0
   12.0115   -4.8056   -2.8891 H   0  0  0  0  0  0
   10.9242   -5.5027   -4.0845 H   0  0  0  0  0  0
   12.1572   -6.4992   -3.3389 H   0  0  0  0  0  0
   10.2733   -8.1911   -2.5813 H   0  0  0  0  0  0
    9.0753   -7.1593   -3.3379 H   0  0  0  0  0  0
    8.9155   -7.5889   -1.6388 H   0  0  0  0  0  0
  1  2  1  0  0  0
  2  3  1  0  0  0
  2  4  1  0  0  0
  2  5  1  0  0  0
  5  6  2  0  0  0
  5  7  1  0  0  0
  6  8  1  0  0  0
  6 40  1  0  0  0
  7  9  2  0  0  0
  7 41  1  0  0  0
  8 10  2  0  0  0
  8 42  1  0  0  0
  9 10  1  0  0  0
  9 43  1  0  0  0
 10 11  1  0  0  0
 11 12  1  0  0  0
 11 13  2  0  0  0
 12 14  2  0  0  0
 13 15  1  0  0  0
 13 44  1  0  0  0
 14 15  1  0  0  0
 15 16  1  0  0  0
 16 17  2  0  0  0
 16 18  1  0  0  0
 17 19  1  0  0  0
 17 45  1  0  0  0
 18 20  2  0  0  0
 18 46  1  0  0  0
 19 21  1  0  0  0
 19 22  2  0  0  0
 20 23  1  0  0  0
 20 22  1  0  0  0
 21 24  2  0  0  0
 21 25  1  0  0  0
 22 47  1  0  0  0
 23 26  2  0  0  0
 23 27  1  0  0  0
 24 28  1  0  0  0
 24 48  1  0  0  0
 25 29  2  0  0  0
 25 49  1  0  0  0
 26 30  1  0  0  0
 27 31  1  0  0  0
 28 32  2  0  0  0
 28 50  1  0  0  0
 29 32  1  0  0  0
 29 51  1  0  0  0
 30 31  2  0  0  0
 32 33  1  0  0  0
 33 34  2  0  0  0
 33 35  1  0  0  0
 35 36  1  0  0  0
 35 52  1  0  0  0
 36 37  1  0  0  0
 36 38  1  0  0  0
 36 39  1  0  0  0
 37 53  1  0  0  0
 37 54  1  0  0  0
 37 55  1  0  0  0
 38 56  1  0  0  0
 38 57  1  0  0  0
 38 58  1  0  0  0
 39 59  1  0  0  0
 39 60  1  0  0  0
 39 61  1  0  0  0
M  CHG  1  27  -1
M  END
> <i_epik_Tot_Q>
-1

> <i_epik_Tot_abs_Q>
1

> <i_lp_mmshare_version>
62121

> <i_m_Source_File_Index>
28

> <i_phase_Input_Structure_Number>
44

> <i_phase_Reference_Structure>
41

> <i_phase_Structure_Number>
44

> <Molecule Name>
56

> <Rotatable Bonds>
7

> <i_f3d_flags>
0

> <b_lp_Chiralities_Consistent>
1

> <r_canvas_IC50_human_P2Y14R,_nM>
20700

> <r_canvas_pIC50>
4.68402965454308

> <r_epik_Charging_Adjusted_Penalty>
0.00157158068015428

> <r_epik_Ionization_Penalty>
  0.0009

> <r_epik_Ionization_Penalty_Charging>
  0.0009

> <r_epik_Ionization_Penalty_Neutral>
  0.0000

> <r_epik_State_Penalty>
  0.0006

> <r_lp_Energy>
43.883824

> <r_lp_tautomer_probability>
1

> <r_phase_Similarity_to_Reference>
0.916536249250594

> <s_canvas_CHEMBLID>
CHEMBL4868306

> <s_canvas_Compound>
36c

> <s_canvas_Paper>
Yu2018

> <s_epik_cmdline>
J2VwaWtfcHl0aG9uJywgJy1waCcsICc3LjAnLCAnLXRuJywgJzgnLCAnLW1hJywgJzUwMCcsICctaW1hZScsICc8aW5maWxlLm1hZT4nLCAnLW9tYWUnLCAnPG91dGZpbGUubWFlPic=

> <s_epik_input>
RkMoRikoRiljMVtjSF1bY0hdYyhbY0hdW2NIXTEpLWMybm5uKFtjSF0yKS1jM1tjSF1jKFtjSF1jKFtjSF0zKS1jNG5ubltuSF00KS1jNVtjSF1bY0hdYyhbY0hdW2NIXTUpQyg9TylbTkhdQyhbQ0gzXSkoW0NIM10pW0NIM10=

> <s_lp_Force_Field>
S-OPLS

> <s_lp_Variant>
56-1

> <s_m_Source_File>
database-aligned.sdf

> <s_m_Source_Path>
/data/matteo/P2Y14-antagonists-piperidineDerivatives-Wen2023/14052024-optimized-alignment

> <s_m_entry_id>
28

> <s_m_entry_name>
database-aligned.28

> <s_m_job_name>
align_ligands_1

> <s_phase_Alignment_Method>
snapped core

> <s_phase_Alignment_Reason>


> <s_phase_Core_SMARTS>
a1aaaaa1-a2aa(aa2)-a3aa(-a4[a]aaa4)aa(a3)-a5aaaaa5

$$$$
57
                    3D
 Schrodinger Suite 2023-2.
 34 36  0  0  1  0            999 V2000
   -4.8466   -3.4241    1.6134 F   0  0  0  0  0  0
   -5.0120   -2.1173    1.8111 C   0  0  0  0  0  0
   -5.9312   -1.6407    0.9732 F   0  0  0  0  0  0
   -5.3787   -1.8881    3.0709 F   0  0  0  0  0  0
   -3.7102   -1.4192    1.5505 C   0  0  0  0  0  0
   -3.7049   -0.1126    1.0769 C   0  0  0  0  0  0
   -2.5092   -2.0790    1.7828 C   0  0  0  0  0  0
   -2.4987    0.5343    0.8355 C   0  0  0  0  0  0
   -1.3030   -1.4321    1.5414 C   0  0  0  0  0  0
   -1.2977   -0.1255    1.0677 C   0  0  0  0  0  0
    0.0041    0.5726    0.8072 C   0  0  0  0  0  0
    0.0745    1.8131    0.3572 N   0  0  0  0  0  0
    1.2788    0.0570    0.9868 C   0  0  0  0  0  0
    1.4087    2.1505    0.2272 N   0  0  0  0  0  0
    2.1133    1.0787    0.6116 N   0  0  0  0  0  0
    3.5729    1.0430    0.6162 C   0  0  0  0  0  0
    4.2617   -0.0315    0.0062 C   0  0  0  0  0  0
    4.3169    2.0886    1.2383 C   0  0  0  0  0  0
    5.6646   -0.0998   -0.0092 C   0  0  0  0  0  0
    5.7426    2.0238    1.2312 C   0  0  0  0  0  0
    6.3219   -1.1539   -0.6103 O   0  0  0  0  0  0
    6.3723    0.9427    0.6112 C   0  0  0  0  0  0
    6.5543    3.1052    1.8806 C   0  0  0  0  0  0
    7.7936    3.0620    1.8822 O   0  0  0  0  0  0
    5.9458    4.0437    2.4159 O   0  5  0  0  0  0
   -4.6333    0.4102    0.9000 H   0  0  0  0  0  0
   -2.5038   -3.0920    2.1574 H   0  0  0  0  0  0
   -2.5154    1.5502    0.4690 H   0  0  0  0  0  0
   -0.3797   -1.9594    1.7288 H   0  0  0  0  0  0
    1.6403   -0.9005    1.3315 H   0  0  0  0  0  0
    3.6949   -0.8215   -0.4647 H   0  0  0  0  0  0
    3.7980    2.9110    1.7095 H   0  0  0  0  0  0
    5.7264   -1.8439   -1.0216 H   0  0  0  0  0  0
    7.4517    0.8912    0.6013 H   0  0  0  0  0  0
  1  2  1  0  0  0
  2  3  1  0  0  0
  2  4  1  0  0  0
  2  5  1  0  0  0
  5  6  2  0  0  0
  5  7  1  0  0  0
  6  8  1  0  0  0
  6 26  1  0  0  0
  7  9  2  0  0  0
  7 27  1  0  0  0
  8 10  2  0  0  0
  8 28  1  0  0  0
  9 10  1  0  0  0
  9 29  1  0  0  0
 10 11  1  0  0  0
 11 12  1  0  0  0
 11 13  2  0  0  0
 12 14  2  0  0  0
 13 15  1  0  0  0
 13 30  1  0  0  0
 14 15  1  0  0  0
 15 16  1  0  0  0
 16 17  2  0  0  0
 16 18  1  0  0  0
 17 19  1  0  0  0
 17 31  1  0  0  0
 18 20  2  0  0  0
 18 32  1  0  0  0
 19 21  1  0  0  0
 19 22  2  0  0  0
 20 23  1  0  0  0
 20 22  1  0  0  0
 21 33  1  0  0  0
 22 34  1  0  0  0
 23 24  2  0  0  0
 23 25  1  0  0  0
M  CHG  1  25  -1
M  END
> <i_epik_Tot_Q>
-1

> <i_epik_Tot_abs_Q>
1

> <i_lp_mmshare_version>
62121

> <i_m_Source_File_Index>
17

> <i_phase_Input_Structure_Number>
18

> <i_phase_Reference_Structure>
1

> <i_phase_Structure_Number>
18

> <Molecule Name>
57

> <Rotatable Bonds>
4

> <i_f3d_flags>
0

> <b_lp_Chiralities_Consistent>
1

> <r_canvas_IC50_human_P2Y14R,_nM>
16400

> <r_canvas_pIC50>
4.7851561519523

> <r_epik_Charging_Adjusted_Penalty>
0.0219792550006693

> <r_epik_Ionization_Penalty>
  0.0220

> <r_epik_Ionization_Penalty_Charging>
  0.0002

> <r_epik_Ionization_Penalty_Neutral>
  0.0218

> <r_epik_State_Penalty>
  0.0218

> <r_lp_Energy>
33.190765

> <r_lp_tautomer_probability>
1

> <r_phase_Similarity_to_Reference>
0.603072383963219

> <s_canvas_CHEMBLID>
CHEMBL4866107

> <s_canvas_Compound>
37a

> <s_canvas_Paper>
Yu2018

> <s_epik_cmdline>
J2VwaWtfcHl0aG9uJywgJy1waCcsICc3LjAnLCAnLXRuJywgJzgnLCAnLW1hJywgJzUwMCcsICctaW1hZScsICc8aW5maWxlLm1hZT4nLCAnLW9tYWUnLCAnPG91dGZpbGUubWFlPic=

> <s_epik_input>
RkMoRikoRiljMVtjSF1bY0hdYyhbY0hdW2NIXTEpLWMybm5uKFtjSF0yKS1jM1tjSF1jKFtPSF0pW2NIXWMoW2NIXTMpQyg9TylbT0hd

> <s_lp_Force_Field>
S-OPLS

> <s_lp_Variant>
57-1

> <s_m_Source_File>
database-not-aligned-realigned.sdf

> <s_m_Source_Path>
/data/matteo/P2Y14-antagonists-piperidineDerivatives-Wen2023/14052024-optimized-alignment

> <s_m_entry_id>
144

> <s_m_entry_name>
database-not-aligned-realigned.17

> <s_m_job_name>
align_ligands_2

> <s_phase_Alignment_Method>
snapped core

> <s_phase_Alignment_Reason>


> <s_phase_Core_SMARTS>
a1aaaaa1-a2aa(aa2)-a3aaaaa3

$$$$
58
                    3D
 Schrodinger Suite 2023-2.
 33 35  0  0  1  0            999 V2000
    6.6857   -1.4514   -0.7963 Br  0  0  0  0  0  0
    5.6959   -0.0428    0.0147 C   0  0  0  0  0  0
    4.2688   -0.0378   -0.0014 C   0  0  0  0  0  0
    6.3738    1.0063    0.6388 C   0  0  0  0  0  0
    3.5729    1.0430    0.6162 C   0  0  0  0  0  0
    5.7140    2.0823    1.2549 C   0  0  0  0  0  0
    2.1133    1.0787    0.6116 N   0  0  0  0  0  0
    4.3095    2.0826    1.2307 C   0  0  0  0  0  0
    6.4824    3.1926    1.9177 C   0  0  0  0  0  0
    1.4087    2.1505    0.2272 N   0  0  0  0  0  0
    1.2788    0.0570    0.9868 C   0  0  0  0  0  0
    7.7329    3.1460    1.9172 O   0  0  0  0  0  0
    5.8483    4.1301    2.4513 O   0  5  0  0  0  0
    0.0745    1.8131    0.3572 N   0  0  0  0  0  0
    0.0041    0.5726    0.8072 C   0  0  0  0  0  0
   -1.2977   -0.1255    1.0677 C   0  0  0  0  0  0
   -2.4987    0.5343    0.8355 C   0  0  0  0  0  0
   -1.3030   -1.4321    1.5414 C   0  0  0  0  0  0
   -3.7049   -0.1126    1.0769 C   0  0  0  0  0  0
   -2.5092   -2.0790    1.7828 C   0  0  0  0  0  0
   -3.7102   -1.4192    1.5505 C   0  0  0  0  0  0
   -5.0120   -2.1173    1.8111 C   0  0  0  0  0  0
   -4.8466   -3.4241    1.6134 F   0  0  0  0  0  0
   -5.9312   -1.6407    0.9732 F   0  0  0  0  0  0
   -5.3787   -1.8881    3.0709 F   0  0  0  0  0  0
    3.7508   -0.8530   -0.4850 H   0  0  0  0  0  0
    7.4537    0.9711    0.6389 H   0  0  0  0  0  0
    3.7894    2.9039    1.7024 H   0  0  0  0  0  0
    1.6401   -0.9006    1.3313 H   0  0  0  0  0  0
   -2.5156    1.5502    0.4690 H   0  0  0  0  0  0
   -0.3798   -1.9596    1.7288 H   0  0  0  0  0  0
   -4.6332    0.4104    0.9000 H   0  0  0  0  0  0
   -2.5036   -3.0919    2.1575 H   0  0  0  0  0  0
  1  2  1  0  0  0
  2  3  2  0  0  0
  2  4  1  0  0  0
  3  5  1  0  0  0
  3 26  1  0  0  0
  4  6  2  0  0  0
  4 27  1  0  0  0
  5  7  1  0  0  0
  5  8  2  0  0  0
  6  9  1  0  0  0
  6  8  1  0  0  0
  7 10  1  0  0  0
  7 11  1  0  0  0
  8 28  1  0  0  0
  9 12  2  0  0  0
  9 13  1  0  0  0
 10 14  2  0  0  0
 11 15  2  0  0  0
 11 29  1  0  0  0
 14 15  1  0  0  0
 15 16  1  0  0  0
 16 17  2  0  0  0
 16 18  1  0  0  0
 17 19  1  0  0  0
 17 30  1  0  0  0
 18 20  2  0  0  0
 18 31  1  0  0  0
 19 21  2  0  0  0
 19 32  1  0  0  0
 20 21  1  0  0  0
 20 33  1  0  0  0
 21 22  1  0  0  0
 22 23  1  0  0  0
 22 24  1  0  0  0
 22 25  1  0  0  0
M  CHG  1  13  -1
M  END
> <i_epik_Tot_Q>
-1

> <i_epik_Tot_abs_Q>
1

> <i_lp_mmshare_version>
62121

> <i_m_Source_File_Index>
18

> <i_phase_Input_Structure_Number>
19

> <i_phase_Reference_Structure>
1

> <i_phase_Structure_Number>
19

> <Molecule Name>
58

> <Rotatable Bonds>
4

> <i_f3d_flags>
0

> <b_lp_Chiralities_Consistent>
1

> <r_canvas_IC50_human_P2Y14R,_nM>
26800

> <r_canvas_pIC50>
4.57186520597121

> <r_epik_Charging_Adjusted_Penalty>
8.5634060334784e-05

> <r_epik_Ionization_Penalty>
  0.0001

> <r_epik_Ionization_Penalty_Charging>
  0.0001

> <r_epik_Ionization_Penalty_Neutral>
  0.0000

> <r_epik_State_Penalty>
  0.0000

> <r_lp_Energy>
32.30185

> <r_lp_tautomer_probability>
1

> <r_phase_Similarity_to_Reference>
0.60132452657932

> <s_canvas_CHEMBLID>
CHEMBL4864408

> <s_canvas_Compound>
37b

> <s_canvas_Paper>
Yu2018

> <s_epik_cmdline>
J2VwaWtfcHl0aG9uJywgJy1waCcsICc3LjAnLCAnLXRuJywgJzgnLCAnLW1hJywgJzUwMCcsICctaW1hZScsICc8aW5maWxlLm1hZT4nLCAnLW9tYWUnLCAnPG91dGZpbGUubWFlPic=

> <s_epik_input>
Tz1DKFtPSF0pYyhbY0hdMSlbY0hdYyhbY0hdYzFCciktbjJubmMoW2NIXTIpLWMzW2NIXVtjSF1jKEMoRikoRilGKVtjSF1bY0hdMw==

> <s_lp_Force_Field>
S-OPLS

> <s_lp_Variant>
58-1

> <s_m_Source_File>
database-not-aligned-realigned.sdf

> <s_m_Source_Path>
/data/matteo/P2Y14-antagonists-piperidineDerivatives-Wen2023/14052024-optimized-alignment

> <s_m_entry_id>
145

> <s_m_entry_name>
database-not-aligned-realigned.18

> <s_m_job_name>
align_ligands_2

> <s_phase_Alignment_Method>
snapped core

> <s_phase_Alignment_Reason>


> <s_phase_Core_SMARTS>
a1aaaaa1-a2aa(aa2)-a3aaaaa3

$$$$
59
                    3D
 Schrodinger Suite 2023-2.
 35 38  0  0  1  0            999 V2000
    6.6612   -1.4663   -0.8000 Br  0  0  0  0  0  0
    5.6959   -0.0428    0.0147 C   0  0  0  0  0  0
    4.2688   -0.0378   -0.0014 C   0  0  0  0  0  0
    6.3738    1.0063    0.6388 C   0  0  0  0  0  0
    3.5729    1.0430    0.6162 C   0  0  0  0  0  0
    5.7140    2.0823    1.2549 C   0  0  0  0  0  0
    2.1133    1.0787    0.6116 N   0  0  0  0  0  0
    4.3095    2.0826    1.2307 C   0  0  0  0  0  0
    6.4802    3.1906    1.9141 C   0  0  0  0  0  0
    1.4087    2.1505    0.2272 N   0  0  0  0  0  0
    1.2788    0.0570    0.9868 C   0  0  0  0  0  0
    7.6704    3.5687    1.5190 N   0  0  0  0  0  0
    6.0173    3.8655    2.9358 N   0  5  0  0  0  0
    0.0745    1.8131    0.3572 N   0  0  0  0  0  0
    0.0041    0.5726    0.8072 C   0  0  0  0  0  0
    8.0251    4.5906    2.3615 N   0  0  0  0  0  0
    6.9969    4.7754    3.2429 N   0  0  0  0  0  0
   -1.2977   -0.1255    1.0677 C   0  0  0  0  0  0
   -2.4987    0.5343    0.8355 C   0  0  0  0  0  0
   -1.3030   -1.4321    1.5414 C   0  0  0  0  0  0
   -3.7049   -0.1126    1.0769 C   0  0  0  0  0  0
   -2.5092   -2.0790    1.7828 C   0  0  0  0  0  0
   -3.7102   -1.4192    1.5505 C   0  0  0  0  0  0
   -5.0120   -2.1173    1.8111 C   0  0  0  0  0  0
   -4.8466   -3.4241    1.6134 F   0  0  0  0  0  0
   -5.9312   -1.6407    0.9732 F   0  0  0  0  0  0
   -5.3787   -1.8881    3.0709 F   0  0  0  0  0  0
    3.7264   -0.8405   -0.4790 H   0  0  0  0  0  0
    7.4537    0.9802    0.6451 H   0  0  0  0  0  0
    3.7725    2.8979    1.6936 H   0  0  0  0  0  0
    1.6392   -0.9001    1.3333 H   0  0  0  0  0  0
   -2.5154    1.5500    0.4685 H   0  0  0  0  0  0
   -0.3800   -1.9599    1.7285 H   0  0  0  0  0  0
   -4.6333    0.4092    0.8972 H   0  0  0  0  0  0
   -2.5040   -3.0931    2.1544 H   0  0  0  0  0  0
  1  2  1  0  0  0
  2  3  2  0  0  0
  2  4  1  0  0  0
  3  5  1  0  0  0
  3 28  1  0  0  0
  4  6  2  0  0  0
  4 29  1  0  0  0
  5  7  1  0  0  0
  5  8  2  0  0  0
  6  9  1  0  0  0
  6  8  1  0  0  0
  7 10  1  0  0  0
  7 11  1  0  0  0
  8 30  1  0  0  0
  9 12  2  0  0  0
  9 13  1  0  0  0
 10 14  2  0  0  0
 11 15  2  0  0  0
 11 31  1  0  0  0
 12 16  1  0  0  0
 13 17  1  0  0  0
 14 15  1  0  0  0
 15 18  1  0  0  0
 16 17  2  0  0  0
 18 19  2  0  0  0
 18 20  1  0  0  0
 19 21  1  0  0  0
 19 32  1  0  0  0
 20 22  2  0  0  0
 20 33  1  0  0  0
 21 23  2  0  0  0
 21 34  1  0  0  0
 22 23  1  0  0  0
 22 35  1  0  0  0
 23 24  1  0  0  0
 24 25  1  0  0  0
 24 26  1  0  0  0
 24 27  1  0  0  0
M  CHG  1  13  -1
M  END
> <i_epik_Tot_Q>
-1

> <i_epik_Tot_abs_Q>
1

> <i_lp_mmshare_version>
62121

> <i_m_Source_File_Index>
29

> <i_phase_Input_Structure_Number>
47

> <i_phase_Reference_Structure>
41

> <i_phase_Structure_Number>
47

> <Molecule Name>
59

> <Rotatable Bonds>
4

> <i_f3d_flags>
0

> <b_lp_Chiralities_Consistent>
1

> <r_canvas_IC50_human_P2Y14R,_nM>
33100

> <r_canvas_pIC50>
4.48017200622428

> <r_epik_Charging_Adjusted_Penalty>
0.000691459855450199

> <r_epik_Ionization_Penalty>
  0.0004

> <r_epik_Ionization_Penalty_Charging>
  0.0004

> <r_epik_Ionization_Penalty_Neutral>
  0.0000

> <r_epik_State_Penalty>
  0.0003

> <r_lp_Energy>
28.122487

> <r_lp_tautomer_probability>
1

> <r_phase_Similarity_to_Reference>
0.619410907800825

> <s_canvas_CHEMBLID>
CHEMBL4863984

> <s_canvas_Compound>
37c

> <s_canvas_Paper>
Yu2018

> <s_epik_cmdline>
J2VwaWtfcHl0aG9uJywgJy1waCcsICc3LjAnLCAnLXRuJywgJzgnLCAnLW1hJywgJzUwMCcsICctaW1hZScsICc8aW5maWxlLm1hZT4nLCAnLW9tYWUnLCAnPG91dGZpbGUubWFlPic=

> <s_epik_input>
W25IXTFubm5jMS1jKFtjSF0yKVtjSF1jKFtjSF1jMkJyKS1uM25uYyhbY0hdMyktYzRbY0hdW2NIXWMoQyhGKShGKUYpW2NIXVtjSF00

> <s_lp_Force_Field>
S-OPLS

> <s_lp_Variant>
59-1

> <s_m_Source_File>
database-aligned.sdf

> <s_m_Source_Path>
/data/matteo/P2Y14-antagonists-piperidineDerivatives-Wen2023/14052024-optimized-alignment

> <s_m_entry_id>
29

> <s_m_entry_name>
database-aligned.29

> <s_m_job_name>
align_ligands_1

> <s_phase_Alignment_Method>
snapped core

> <s_phase_Alignment_Reason>


> <s_phase_Core_SMARTS>
a1aaaa1-a2aaaa(a2)-a3aa(aa3)-a4aaaaa4

$$$$
60
                    3D
 Schrodinger Suite 2023-2.
 34 36  0  0  1  0            999 V2000
   -5.0261    1.4324    0.2838 F   0  0  0  0  0  0
   -4.4843    0.5364    1.1094 C   0  0  0  0  0  0
   -4.7261    0.9091    2.3654 F   0  0  0  0  0  0
   -5.0718   -0.6406    0.8904 F   0  0  0  0  0  0
   -2.9805    0.4435    0.8954 C   0  0  0  0  0  0
   -2.2992   -0.7723    1.1122 C   0  0  0  0  0  0
   -2.2454    1.5776    0.4941 C   0  0  0  0  0  0
   -0.9062   -0.8510    0.9207 C   0  0  0  0  0  0
   -0.8521    1.4946    0.3065 C   0  0  0  0  0  0
   -0.1610    0.2796    0.5158 C   0  0  0  0  0  0
    1.3001    0.1930    0.3226 C   0  0  0  0  0  0
    2.1524    1.2383    0.7416 C   0  0  0  0  0  0
    1.8847   -0.9390   -0.2850 C   0  0  0  0  0  0
    3.5501    1.1548    0.5712 C   0  0  0  0  0  0
    3.2777   -1.0307   -0.4622 C   0  0  0  0  0  0
    4.1320    0.0089   -0.0274 C   0  0  0  0  0  0
    4.3632    2.2211    1.0016 C   0  0  0  0  0  0
    5.5422   -0.0679   -0.1843 C   0  0  0  0  0  0
    5.7637    2.1649    0.8405 C   0  0  0  0  0  0
    6.1441   -1.1563   -0.7502 O   0  0  0  0  0  0
    6.3353    1.0178    0.2468 C   0  0  0  0  0  0
    6.6335    3.3065    1.2938 C   0  0  0  0  0  0
    7.8718    3.2234    1.1339 O   0  0  0  0  0  0
    6.0939    4.3069    1.8173 O   0  5  0  0  0  0
   -2.8416   -1.6514    1.4275 H   0  0  0  0  0  0
   -2.7468    2.5196    0.3281 H   0  0  0  0  0  0
   -0.4079   -1.7928    1.0983 H   0  0  0  0  0  0
   -0.3136    2.3771   -0.0069 H   0  0  0  0  0  0
    1.7299    2.1154    1.2106 H   0  0  0  0  0  0
    1.2617   -1.7524   -0.6269 H   0  0  0  0  0  0
    3.6864   -1.9142   -0.9301 H   0  0  0  0  0  0
    3.9027    3.0873    1.4553 H   0  0  0  0  0  0
    7.0840   -1.0696   -0.7947 H   0  0  0  0  0  0
    7.4062    0.9560    0.1178 H   0  0  0  0  0  0
  1  2  1  0  0  0
  2  3  1  0  0  0
  2  4  1  0  0  0
  2  5  1  0  0  0
  5  6  2  0  0  0
  5  7  1  0  0  0
  6  8  1  0  0  0
  6 25  1  0  0  0
  7  9  2  0  0  0
  7 26  1  0  0  0
  8 10  2  0  0  0
  8 27  1  0  0  0
  9 10  1  0  0  0
  9 28  1  0  0  0
 10 11  1  0  0  0
 11 12  2  0  0  0
 11 13  1  0  0  0
 12 14  1  0  0  0
 12 29  1  0  0  0
 13 15  2  0  0  0
 13 30  1  0  0  0
 14 16  1  0  0  0
 14 17  2  0  0  0
 15 16  1  0  0  0
 15 31  1  0  0  0
 16 18  2  0  0  0
 17 19  1  0  0  0
 17 32  1  0  0  0
 18 20  1  0  0  0
 18 21  1  0  0  0
 19 22  1  0  0  0
 19 21  2  0  0  0
 20 33  1  0  0  0
 21 34  1  0  0  0
 22 23  2  0  0  0
 22 24  1  0  0  0
M  CHG  1  24  -1
M  END
> <i_epik_Tot_Q>
-1

> <i_epik_Tot_abs_Q>
1

> <i_lp_mmshare_version>
62121

> <i_m_Source_File_Index>
30

> <i_phase_Input_Structure_Number>
48

> <i_phase_Reference_Structure>
116

> <i_phase_Structure_Number>
48

> <Molecule Name>
60

> <Rotatable Bonds>
3

> <i_f3d_flags>
0

> <b_lp_Chiralities_Consistent>
1

> <r_canvas_IC50_human_P2Y14R,_nM>
3200

> <r_canvas_pIC50>
5.49485002168009

> <r_epik_Charging_Adjusted_Penalty>
0.000633039618553206

> <r_epik_Ionization_Penalty>
  0.0059

> <r_epik_Ionization_Penalty_Charging>
  0.0006

> <r_epik_Ionization_Penalty_Neutral>
  0.0053

> <r_epik_State_Penalty>
  0.0000

> <r_lp_Energy>
41.196663

> <r_lp_tautomer_probability>
1

> <r_phase_Similarity_to_Reference>
0.476914926484545

> <s_canvas_CHEMBLID>
CHEMBL4859398

> <s_canvas_Compound>
37d

> <s_canvas_Paper>
Yu2018

> <s_epik_cmdline>
J2VwaWtfcHl0aG9uJywgJy1waCcsICc3LjAnLCAnLXRuJywgJzgnLCAnLW1hJywgJzUwMCcsICctaW1hZScsICc8aW5maWxlLm1hZT4nLCAnLW9tYWUnLCAnPG91dGZpbGUubWFlPic=

> <s_epik_input>
RkMoRikoRiljMVtjSF1bY0hdYyhbY0hdW2NIXTEpLWMoW2NIXTIpW2NIXVtjSF1jKGMyMyljKFtPSF0pW2NIXWMoW2NIXTMpQyg9TylbT0hd

> <s_lp_Force_Field>
S-OPLS

> <s_lp_Variant>
60-1

> <s_m_Source_File>
database-aligned.sdf

> <s_m_Source_Path>
/data/matteo/P2Y14-antagonists-piperidineDerivatives-Wen2023/14052024-optimized-alignment

> <s_m_entry_id>
30

> <s_m_entry_name>
database-aligned.30

> <s_m_job_name>
align_ligands_1

> <s_phase_Alignment_Method>
snapped core

> <s_phase_Alignment_Reason>


> <s_phase_Core_SMARTS>
a1aaaa(a12)aa(aa2)-a3aaaaa3

$$$$
63
                    3D
 Schrodinger Suite 2023-2.
 57 61  0  0  1  0            999 V2000
   -5.0261    1.4324    0.2838 F   0  0  0  0  0  0
   -4.4843    0.5364    1.1094 C   0  0  0  0  0  0
   -4.7261    0.9091    2.3654 F   0  0  0  0  0  0
   -5.0718   -0.6406    0.8904 F   0  0  0  0  0  0
   -2.9805    0.4435    0.8954 C   0  0  0  0  0  0
   -2.2992   -0.7723    1.1122 C   0  0  0  0  0  0
   -2.2454    1.5776    0.4941 C   0  0  0  0  0  0
   -0.9062   -0.8510    0.9207 C   0  0  0  0  0  0
   -0.8521    1.4946    0.3065 C   0  0  0  0  0  0
   -0.1610    0.2796    0.5158 C   0  0  0  0  0  0
    1.3001    0.1930    0.3226 C   0  0  0  0  0  0
    2.1524    1.2383    0.7416 C   0  0  0  0  0  0
    1.8847   -0.9390   -0.2850 C   0  0  0  0  0  0
    3.5501    1.1548    0.5712 C   0  0  0  0  0  0
    3.2777   -1.0307   -0.4622 C   0  0  0  0  0  0
    4.1320    0.0089   -0.0274 C   0  0  0  0  0  0
    4.3632    2.2211    1.0016 C   0  0  0  0  0  0
    5.5422   -0.0679   -0.1843 C   0  0  0  0  0  0
    5.7637    2.1649    0.8405 C   0  0  0  0  0  0
    6.2189   -1.2368   -0.7759 C   0  0  0  0  0  0
    6.3353    1.0178    0.2468 C   0  0  0  0  0  0
    6.6335    3.3065    1.2938 C   0  0  0  0  0  0
    6.1956   -2.4906   -0.1313 C   0  0  0  0  0  0
    6.9102   -1.1235   -1.9992 C   0  0  0  0  0  0
    7.8718    3.2234    1.1339 O   0  0  0  0  0  0
    6.0939    4.3069    1.8173 O   0  5  0  0  0  0
    6.8300   -3.6077   -0.7058 C   0  0  0  0  0  0
    7.5479   -2.2386   -2.5763 C   0  0  0  0  0  0
    7.5223   -3.4998   -1.9335 C   0  0  0  0  0  0
    8.1860   -4.6846   -2.5209 C   0  0  0  0  0  0
    8.2990   -4.8288   -3.8593 C   0  0  0  0  0  0
    8.8285   -5.7190   -1.6007 C   0  0  0  0  0  0
    9.0125   -5.9839   -4.5460 C   0  0  0  0  0  0
    9.8527   -6.6142   -2.3199 C   0  0  0  0  0  0
    9.3064   -7.0875   -3.6056 N   0  3  0  0  0  0
   -2.8408   -1.6506    1.4310 H   0  0  0  0  0  0
   -2.7463    2.5205    0.3314 H   0  0  0  0  0  0
   -0.4077   -1.7926    1.0991 H   0  0  0  0  0  0
   -0.3135    2.3773   -0.0061 H   0  0  0  0  0  0
    1.7299    2.1151    1.2109 H   0  0  0  0  0  0
    1.2614   -1.7514   -0.6287 H   0  0  0  0  0  0
    3.6724   -1.9144   -0.9398 H   0  0  0  0  0  0
    3.9030    3.0873    1.4555 H   0  0  0  0  0  0
    7.4071    0.9557    0.1224 H   0  0  0  0  0  0
    5.6760   -2.6004    0.8096 H   0  0  0  0  0  0
    6.9474   -0.1704   -2.5068 H   0  0  0  0  0  0
    6.7797   -4.5539   -0.1879 H   0  0  0  0  0  0
    8.0719   -2.1057   -3.5110 H   0  0  0  0  0  0
    7.8787   -4.0906   -4.5264 H   0  0  0  0  0  0
    9.3384   -5.2020   -0.7864 H   0  0  0  0  0  0
    8.0405   -6.3230   -1.1494 H   0  0  0  0  0  0
    8.3981   -6.3649   -5.3618 H   0  0  0  0  0  0
    9.9418   -5.6140   -4.9802 H   0  0  0  0  0  0
   10.7764   -6.0646   -2.5076 H   0  0  0  0  0  0
   10.1129   -7.4701   -1.6962 H   0  0  0  0  0  0
    8.4475   -7.5842   -3.4159 H   0  0  0  0  0  0
    9.9618   -7.7229   -4.0380 H   0  0  0  0  0  0
  1  2  1  0  0  0
  2  3  1  0  0  0
  2  4  1  0  0  0
  2  5  1  0  0  0
  5  6  2  0  0  0
  5  7  1  0  0  0
  6  8  1  0  0  0
  6 36  1  0  0  0
  7  9  2  0  0  0
  7 37  1  0  0  0
  8 10  2  0  0  0
  8 38  1  0  0  0
  9 10  1  0  0  0
  9 39  1  0  0  0
 10 11  1  0  0  0
 11 12  2  0  0  0
 11 13  1  0  0  0
 12 14  1  0  0  0
 12 40  1  0  0  0
 13 15  2  0  0  0
 13 41  1  0  0  0
 14 16  1  0  0  0
 14 17  2  0  0  0
 15 16  1  0  0  0
 15 42  1  0  0  0
 16 18  2  0  0  0
 17 19  1  0  0  0
 17 43  1  0  0  0
 18 20  1  0  0  0
 18 21  1  0  0  0
 19 22  1  0  0  0
 19 21  2  0  0  0
 20 23  2  0  0  0
 20 24  1  0  0  0
 21 44  1  0  0  0
 22 25  2  0  0  0
 22 26  1  0  0  0
 23 27  1  0  0  0
 23 45  1  0  0  0
 24 28  2  0  0  0
 24 46  1  0  0  0
 27 29  2  0  0  0
 27 47  1  0  0  0
 28 29  1  0  0  0
 28 48  1  0  0  0
 29 30  1  0  0  0
 30 31  2  0  0  0
 30 32  1  0  0  0
 31 33  1  0  0  0
 31 49  1  0  0  0
 32 34  1  0  0  0
 32 50  1  0  0  0
 32 51  1  0  0  0
 33 35  1  0  0  0
 33 52  1  0  0  0
 33 53  1  0  0  0
 34 35  1  0  0  0
 34 54  1  0  0  0
 34 55  1  0  0  0
 35 56  1  0  0  0
 35 57  1  0  0  0
M  CHG  2  26  -1  35   1
M  END
> <i_epik_Tot_Q>
0

> <i_epik_Tot_abs_Q>
2

> <i_lp_mmshare_version>
62121

> <i_m_Source_File_Index>
31

> <i_phase_Input_Structure_Number>
49

> <i_phase_Reference_Structure>
116

> <i_phase_Structure_Number>
49

> <Molecule Name>
63

> <Rotatable Bonds>
5

> <i_f3d_flags>
0

> <b_lp_Chiralities_Consistent>
1

> <r_canvas_IC50_human_P2Y14R,_nM>
18

> <r_canvas_pIC50>
7.74472749489669

> <r_epik_Charging_Adjusted_Penalty>
0.00493200897716344

> <r_epik_Ionization_Penalty>
  0.0049

> <r_epik_Ionization_Penalty_Charging>
  0.0049

> <r_epik_Ionization_Penalty_Neutral>
  0.0000

> <r_epik_State_Penalty>
  0.0000

> <r_lp_Energy>
71.82694

> <r_lp_tautomer_probability>
1

> <r_phase_Similarity_to_Reference>
0.75021535720608

> <s_canvas_CHEMBLID>
CHEMBL4857504

> <s_canvas_Compound>
3

> <s_canvas_Paper>
Jung2020

> <s_epik_cmdline>
J2VwaWtfcHl0aG9uJywgJy1waCcsICc3LjAnLCAnLXRuJywgJzgnLCAnLW1hJywgJzUwMCcsICctaW1hZScsICc8aW5maWxlLm1hZT4nLCAnLW9tYWUnLCAnPG91dGZpbGUubWFlPic=

> <s_epik_input>
RkMoRikoRiljMVtjSF1bY0hdYyhbY0hdW2NIXTEpLWMoW2NIXTIpW2NIXVtjSF1jKGMyMyljKFtjSF1jKFtjSF0zKUMoPU8pW09IXSktYzRbY0hdW2NIXWMoW2NIXVtjSF00KUM1PVtDSF1bQ0gyXVtOSF1bQ0gyXVtDSDJdNQ==

> <s_lp_Force_Field>
S-OPLS

> <s_lp_Variant>
63-1

> <s_m_Source_File>
database-aligned.sdf

> <s_m_Source_Path>
/data/matteo/P2Y14-antagonists-piperidineDerivatives-Wen2023/14052024-optimized-alignment

> <s_m_entry_id>
31

> <s_m_entry_name>
database-aligned.31

> <s_m_job_name>
align_ligands_1

> <s_phase_Alignment_Method>
snapped core

> <s_phase_Alignment_Reason>


> <s_phase_Core_SMARTS>
a1aaaaa1-a(a2)aaa(a23)a(aaa3)-a4aaaaa4

$$$$
64
                    3D
 Schrodinger Suite 2023-2.
 58 62  0  0  1  0            999 V2000
   -4.8466   -3.4241    1.6134 F   0  0  0  0  0  0
   -5.0120   -2.1173    1.8111 C   0  0  0  0  0  0
   -5.9312   -1.6407    0.9732 F   0  0  0  0  0  0
   -5.3787   -1.8881    3.0709 F   0  0  0  0  0  0
   -3.7102   -1.4192    1.5505 C   0  0  0  0  0  0
   -3.7049   -0.1126    1.0769 C   0  0  0  0  0  0
   -2.5092   -2.0790    1.7828 C   0  0  0  0  0  0
   -2.4987    0.5343    0.8355 C   0  0  0  0  0  0
   -1.3030   -1.4321    1.5414 C   0  0  0  0  0  0
   -1.2977   -0.1255    1.0677 C   0  0  0  0  0  0
    0.0041    0.5726    0.8072 C   0  0  0  0  0  0
    0.0745    1.8131    0.3572 N   0  0  0  0  0  0
    1.2788    0.0570    0.9868 C   0  0  0  0  0  0
    1.4087    2.1505    0.2272 N   0  0  0  0  0  0
    2.1133    1.0787    0.6116 N   0  0  0  0  0  0
    3.5729    1.0430    0.6162 C   0  0  0  0  0  0
    4.2688   -0.0378   -0.0014 C   0  0  0  0  0  0
    4.3095    2.0826    1.2307 C   0  0  0  0  0  0
    5.6959   -0.0428    0.0147 C   0  0  0  0  0  0
    5.7140    2.0823    1.2549 C   0  0  0  0  0  0
    6.4845   -1.1328   -0.6109 C   0  0  0  0  0  0
    6.3738    1.0063    0.6388 C   0  0  0  0  0  0
    6.4824    3.1926    1.9177 C   0  0  0  0  0  0
    6.8196   -1.0713   -1.9653 C   0  0  0  0  0  0
    6.8885   -2.2318    0.1496 C   0  0  0  0  0  0
    7.7329    3.1460    1.9172 O   0  0  0  0  0  0
    5.8483    4.1301    2.4513 O   0  5  0  0  0  0
    7.5469   -2.1010   -2.5562 C   0  0  0  0  0  0
    7.6134   -3.2639   -0.4389 C   0  0  0  0  0  0
    7.9469   -3.2050   -1.7964 C   0  0  0  0  0  0
    8.7323   -4.3448   -2.4511 N   0  0  0  0  0  0
   10.1198   -4.5548   -1.7988 C   0  0  0  0  0  0
    7.9157   -5.6578   -2.4890 C   0  0  0  0  0  0
   10.9018   -5.7110   -2.4500 C   0  0  0  0  0  0
    8.6977   -6.8138   -3.1399 C   0  0  0  0  0  0
   10.0472   -6.9906   -2.4217 N   0  3  0  0  0  0
   -4.6328    0.4101    0.8975 H   0  0  0  0  0  0
   -2.5030   -3.0929    2.1549 H   0  0  0  0  0  0
   -2.5154    1.5501    0.4687 H   0  0  0  0  0  0
   -0.3800   -1.9599    1.7284 H   0  0  0  0  0  0
    1.6399   -0.8999    1.3331 H   0  0  0  0  0  0
    3.7252   -0.8400   -0.4787 H   0  0  0  0  0  0
    3.7661    2.8934    1.6945 H   0  0  0  0  0  0
    7.4543    0.9796    0.6398 H   0  0  0  0  0  0
    6.5112   -0.2238   -2.5602 H   0  0  0  0  0  0
    6.6331   -2.2865    1.1979 H   0  0  0  0  0  0
    7.7981   -2.0461   -3.6053 H   0  0  0  0  0  0
    7.9113   -4.1103    0.1619 H   0  0  0  0  0  0
   10.6916   -3.6296   -1.8756 H   0  0  0  0  0  0
    9.9896   -4.7576   -0.7355 H   0  0  0  0  0  0
    7.6361   -5.9326   -1.4714 H   0  0  0  0  0  0
    6.9880   -5.4833   -3.0348 H   0  0  0  0  0  0
   11.1498   -5.4681   -3.4838 H   0  0  0  0  0  0
   11.8393   -5.8862   -1.9222 H   0  0  0  0  0  0
    8.1294   -7.7422   -3.0831 H   0  0  0  0  0  0
    8.8774   -6.6052   -4.1951 H   0  0  0  0  0  0
   10.5604   -7.7388   -2.8656 H   0  0  0  0  0  0
    9.8708   -7.2403   -1.4590 H   0  0  0  0  0  0
  1  2  1  0  0  0
  2  3  1  0  0  0
  2  4  1  0  0  0
  2  5  1  0  0  0
  5  6  2  0  0  0
  5  7  1  0  0  0
  6  8  1  0  0  0
  6 37  1  0  0  0
  7  9  2  0  0  0
  7 38  1  0  0  0
  8 10  2  0  0  0
  8 39  1  0  0  0
  9 10  1  0  0  0
  9 40  1  0  0  0
 10 11  1  0  0  0
 11 12  1  0  0  0
 11 13  2  0  0  0
 12 14  2  0  0  0
 13 15  1  0  0  0
 13 41  1  0  0  0
 14 15  1  0  0  0
 15 16  1  0  0  0
 16 17  2  0  0  0
 16 18  1  0  0  0
 17 19  1  0  0  0
 17 42  1  0  0  0
 18 20  2  0  0  0
 18 43  1  0  0  0
 19 21  1  0  0  0
 19 22  2  0  0  0
 20 23  1  0  0  0
 20 22  1  0  0  0
 21 24  2  0  0  0
 21 25  1  0  0  0
 22 44  1  0  0  0
 23 26  2  0  0  0
 23 27  1  0  0  0
 24 28  1  0  0  0
 24 45  1  0  0  0
 25 29  2  0  0  0
 25 46  1  0  0  0
 28 30  2  0  0  0
 28 47  1  0  0  0
 29 30  1  0  0  0
 29 48  1  0  0  0
 30 31  1  0  0  0
 31 32  1  0  0  0
 31 33  1  0  0  0
 32 34  1  0  0  0
 32 49  1  0  0  0
 32 50  1  0  0  0
 33 35  1  0  0  0
 33 51  1  0  0  0
 33 52  1  0  0  0
 34 36  1  0  0  0
 34 53  1  0  0  0
 34 54  1  0  0  0
 35 36  1  0  0  0
 35 55  1  0  0  0
 35 56  1  0  0  0
 36 57  1  0  0  0
 36 58  1  0  0  0
M  CHG  2  27  -1  36   1
M  END
> <i_epik_Tot_Q>
0

> <i_epik_Tot_abs_Q>
2

> <i_lp_mmshare_version>
62121

> <i_m_Source_File_Index>
32

> <i_phase_Input_Structure_Number>
50

> <i_phase_Reference_Structure>
41

> <i_phase_Structure_Number>
50

> <Molecule Name>
64

> <Rotatable Bonds>
6

> <i_f3d_flags>
0

> <b_lp_Chiralities_Consistent>
1

> <r_canvas_IC50_human_P2Y14R,_nM>
233

> <r_canvas_pIC50>
6.63264407897398

> <r_epik_Charging_Adjusted_Penalty>
0.017310190071742

> <r_epik_Ionization_Penalty>
  0.0089

> <r_epik_Ionization_Penalty_Charging>
  0.0087

> <r_epik_Ionization_Penalty_Neutral>
  0.0002

> <r_epik_State_Penalty>
  0.0086

> <r_lp_Energy>
63.521502

> <r_lp_tautomer_probability>
1

> <r_phase_Similarity_to_Reference>
0.901225825968318

> <s_canvas_CHEMBLID>
CHEMBL4855087

> <s_canvas_Compound>
4

> <s_canvas_Paper>
Jung2020

> <s_epik_cmdline>
J2VwaWtfcHl0aG9uJywgJy1waCcsICc3LjAnLCAnLXRuJywgJzgnLCAnLW1hJywgJzUwMCcsICctaW1hZScsICc8aW5maWxlLm1hZT4nLCAnLW9tYWUnLCAnPG91dGZpbGUubWFlPic=

> <s_epik_input>
RkMoRikoRiljMVtjSF1bY0hdYyhbY0hdW2NIXTEpLWMybm5uKFtjSF0yKS1jM1tjSF1jKFtjSF1jKFtjSF0zKUMoPU8pW09IXSktYzRbY0hdW2NIXWMoW2NIXVtjSF00KU41W0NIMl1bQ0gyXVtOSF1bQ0gyXVtDSDJdNQ==

> <s_lp_Force_Field>
S-OPLS

> <s_lp_Variant>
64-1

> <s_m_Source_File>
database-aligned.sdf

> <s_m_Source_Path>
/data/matteo/P2Y14-antagonists-piperidineDerivatives-Wen2023/14052024-optimized-alignment

> <s_m_entry_id>
32

> <s_m_entry_name>
database-aligned.32

> <s_m_job_name>
align_ligands_1

> <s_phase_Alignment_Method>
snapped core

> <s_phase_Alignment_Reason>


> <s_phase_Core_SMARTS>
a1aaaaa1-a2aa(aa2)-a3aaaa(a3)-a4aaa(aa4)A5AA[A]AA5

$$$$
65
                    3D
 Schrodinger Suite 2023-2.
 62 66  0  0  1  0            999 V2000
   -5.0261    1.4324    0.2838 F   0  0  0  0  0  0
   -4.4843    0.5364    1.1094 C   0  0  0  0  0  0
   -4.7261    0.9091    2.3654 F   0  0  0  0  0  0
   -5.0718   -0.6406    0.8904 F   0  0  0  0  0  0
   -2.9805    0.4435    0.8954 C   0  0  0  0  0  0
   -2.2992   -0.7723    1.1122 C   0  0  0  0  0  0
   -2.2454    1.5776    0.4941 C   0  0  0  0  0  0
   -0.9062   -0.8510    0.9207 C   0  0  0  0  0  0
   -0.8521    1.4946    0.3065 C   0  0  0  0  0  0
   -0.1610    0.2796    0.5158 C   0  0  0  0  0  0
    1.3001    0.1930    0.3226 C   0  0  0  0  0  0
    2.1524    1.2383    0.7416 C   0  0  0  0  0  0
    1.8847   -0.9390   -0.2850 C   0  0  0  0  0  0
    3.5501    1.1548    0.5712 C   0  0  0  0  0  0
    3.2777   -1.0307   -0.4622 C   0  0  0  0  0  0
    4.1320    0.0089   -0.0274 C   0  0  0  0  0  0
    4.3632    2.2211    1.0016 C   0  0  0  0  0  0
    5.5422   -0.0679   -0.1843 C   0  0  0  0  0  0
    5.7637    2.1649    0.8405 C   0  0  0  0  0  0
    6.2189   -1.2368   -0.7759 C   0  0  0  0  0  0
    6.3353    1.0178    0.2468 C   0  0  0  0  0  0
    6.6335    3.3065    1.2938 C   0  0  0  0  0  0
    6.9102   -1.1235   -1.9992 C   0  0  0  0  0  0
    6.1956   -2.4906   -0.1313 C   0  0  0  0  0  0
    7.8718    3.2234    1.1339 O   0  0  0  0  0  0
    6.0939    4.3069    1.8173 O   0  5  0  0  0  0
    7.5479   -2.2386   -2.5763 C   0  0  0  0  0  0
    6.8300   -3.6077   -0.7058 C   0  0  0  0  0  0
    7.5223   -3.4998   -1.9335 C   0  0  0  0  0  0
    8.1668   -4.7603   -2.5405 C   0  0  1  0  0  0
    9.1677   -4.5137   -3.6951 C   0  0  0  0  0  0
    9.1681   -5.4314   -1.5741 C   0  0  0  0  0  0
    9.5605   -5.8453   -4.3903 C   0  0  0  0  0  0
    9.5748   -6.8461   -2.0682 C   0  0  0  0  0  0
   10.1128   -6.8814   -3.4645 N   0  3  1  0  0  0
   10.1251   -8.2386   -4.0499 C   0  0  0  0  0  0
   -2.8414   -1.6507    1.4300 H   0  0  0  0  0  0
   -2.7467    2.5199    0.3296 H   0  0  0  0  0  0
   -0.4077   -1.7925    1.0992 H   0  0  0  0  0  0
   -0.3136    2.3771   -0.0069 H   0  0  0  0  0  0
    1.7300    2.1151    1.2109 H   0  0  0  0  0  0
    1.2614   -1.7510   -0.6295 H   0  0  0  0  0  0
    3.6723   -1.9140   -0.9406 H   0  0  0  0  0  0
    3.9030    3.0875    1.4552 H   0  0  0  0  0  0
    7.4070    0.9556    0.1218 H   0  0  0  0  0  0
    6.9439   -0.1713   -2.5087 H   0  0  0  0  0  0
    5.6729   -2.6012    0.8078 H   0  0  0  0  0  0
    8.0532   -2.0963   -3.5181 H   0  0  0  0  0  0
    6.7655   -4.5573   -0.1963 H   0  0  0  0  0  0
    7.3712   -5.4452   -2.8379 H   0  0  0  0  0  0
    8.6882   -3.9130   -4.4671 H   0  0  0  0  0  0
   10.0478   -3.9460   -3.3874 H   0  0  0  0  0  0
   10.0463   -4.8123   -1.3815 H   0  0  0  0  0  0
    8.7074   -5.5697   -0.5969 H   0  0  0  0  0  0
    8.6685   -6.2538   -4.8683 H   0  0  0  0  0  0
   10.2795   -5.6595   -5.1887 H   0  0  0  0  0  0
   10.3061   -7.2895   -1.3918 H   0  0  0  0  0  0
    8.6906   -7.4844   -2.0264 H   0  0  0  0  0  0
    9.1102   -8.6078   -4.2028 H   0  0  0  0  0  0
   10.6478   -8.9344   -3.3924 H   0  0  0  0  0  0
   10.6377   -8.2357   -5.0126 H   0  0  0  0  0  0
   11.0829   -6.6204   -3.3582 H   0  0  0  0  0  0
  1  2  1  0  0  0
  2  3  1  0  0  0
  2  4  1  0  0  0
  2  5  1  0  0  0
  5  6  2  0  0  0
  5  7  1  0  0  0
  6  8  1  0  0  0
  6 37  1  0  0  0
  7  9  2  0  0  0
  7 38  1  0  0  0
  8 10  2  0  0  0
  8 39  1  0  0  0
  9 10  1  0  0  0
  9 40  1  0  0  0
 10 11  1  0  0  0
 11 12  2  0  0  0
 11 13  1  0  0  0
 12 14  1  0  0  0
 12 41  1  0  0  0
 13 15  2  0  0  0
 13 42  1  0  0  0
 14 16  1  0  0  0
 14 17  2  0  0  0
 15 16  1  0  0  0
 15 43  1  0  0  0
 16 18  2  0  0  0
 17 19  1  0  0  0
 17 44  1  0  0  0
 18 20  1  0  0  0
 18 21  1  0  0  0
 19 22  1  0  0  0
 19 21  2  0  0  0
 20 23  2  0  0  0
 20 24  1  0  0  0
 21 45  1  0  0  0
 22 25  2  0  0  0
 22 26  1  0  0  0
 23 27  1  0  0  0
 23 46  1  0  0  0
 24 28  2  0  0  0
 24 47  1  0  0  0
 27 29  2  0  0  0
 27 48  1  0  0  0
 28 29  1  0  0  0
 28 49  1  0  0  0
 29 30  1  0  0  0
 30 31  1  0  0  0
 30 32  1  0  0  0
 30 50  1  0  0  0
 31 33  1  0  0  0
 31 51  1  0  0  0
 31 52  1  0  0  0
 32 34  1  0  0  0
 32 53  1  0  0  0
 32 54  1  0  0  0
 33 35  1  0  0  0
 33 55  1  0  0  0
 33 56  1  0  0  0
 34 35  1  0  0  0
 34 57  1  0  0  0
 34 58  1  0  0  0
 35 36  1  0  0  0
 35 62  1  0  0  0
 36 59  1  0  0  0
 36 60  1  0  0  0
 36 61  1  0  0  0
M  CHG  2  26  -1  35   1
M  END
> <i_epik_Tot_Q>
0

> <i_epik_Tot_abs_Q>
2

> <i_lp_mmshare_version>
62121

> <i_m_Source_File_Index>
33

> <i_phase_Input_Structure_Number>
51

> <i_phase_Reference_Structure>
116

> <i_phase_Structure_Number>
51

> <Molecule Name>
65

> <Rotatable Bonds>
5

> <i_f3d_flags>
0

> <b_lp_Chiralities_Consistent>
1

> <r_canvas_IC50_human_P2Y14R,_nM>
195

> <r_canvas_pIC50>
6.70996538863748

> <r_epik_Charging_Adjusted_Penalty>
0.0027034616035578

> <r_epik_Ionization_Penalty>
  0.0027

> <r_epik_Ionization_Penalty_Charging>
  0.0027

> <r_epik_Ionization_Penalty_Neutral>
  0.0000

> <r_epik_State_Penalty>
  0.0000

> <r_lp_Energy>
70.456359

> <r_lp_tautomer_probability>
1

> <r_phase_Similarity_to_Reference>
0.781675062048786

> <s_canvas_CHEMBLID>
CHEMBL4854794

> <s_canvas_Compound>
5

> <s_canvas_Paper>
Jung2020

> <s_epik_cmdline>
J2VwaWtfcHl0aG9uJywgJy1waCcsICc3LjAnLCAnLXRuJywgJzgnLCAnLW1hJywgJzUwMCcsICctaW1hZScsICc8aW5maWxlLm1hZT4nLCAnLW9tYWUnLCAnPG91dGZpbGUubWFlPic=

> <s_epik_input>
RkMoRikoRiljMVtjSF1bY0hdYyhbY0hdW2NIXTEpLWMoW2NIXTIpW2NIXVtjSF1jKGMyMyljKFtjSF1jKFtjSF0zKUMoPU8pW09IXSktYzRbY0hdW2NIXWMoW2NIXVtjSF00KVtDSF01W0NIMl1bQ0gyXU4oW0NIM10pW0NIMl1bQ0gyXTU=

> <s_lp_Force_Field>
S-OPLS

> <s_lp_Variant>
65-1

> <s_m_Source_File>
database-aligned.sdf

> <s_m_Source_Path>
/data/matteo/P2Y14-antagonists-piperidineDerivatives-Wen2023/14052024-optimized-alignment

> <s_m_entry_id>
33

> <s_m_entry_name>
database-aligned.33

> <s_m_job_name>
align_ligands_1

> <s_phase_Alignment_Method>
snapped core

> <s_phase_Alignment_Reason>


> <s_phase_Core_SMARTS>
a1aaaaa1-a(a2)aaa(a23)a(aaa3)-a4aaa(aa4)A5AA[A]AA5

$$$$
66
                    3D
 Schrodinger Suite 2023-2.
 63 67  0  0  1  0            999 V2000
   -5.0261    1.4324    0.2838 F   0  0  0  0  0  0
   -4.4843    0.5364    1.1094 C   0  0  0  0  0  0
   -4.7261    0.9091    2.3654 F   0  0  0  0  0  0
   -5.0718   -0.6406    0.8904 F   0  0  0  0  0  0
   -2.9805    0.4435    0.8954 C   0  0  0  0  0  0
   -2.2454    1.5776    0.4941 C   0  0  0  0  0  0
   -2.2992   -0.7723    1.1122 C   0  0  0  0  0  0
   -0.8521    1.4946    0.3065 C   0  0  0  0  0  0
   -0.9062   -0.8510    0.9207 C   0  0  0  0  0  0
   -0.1610    0.2796    0.5158 C   0  0  0  0  0  0
    1.3001    0.1930    0.3226 C   0  0  0  0  0  0
    2.1524    1.2383    0.7416 C   0  0  0  0  0  0
    1.8847   -0.9390   -0.2850 C   0  0  0  0  0  0
    3.5501    1.1548    0.5712 C   0  0  0  0  0  0
    3.2777   -1.0307   -0.4622 C   0  0  0  0  0  0
    4.1320    0.0089   -0.0274 C   0  0  0  0  0  0
    4.3632    2.2211    1.0016 C   0  0  0  0  0  0
    5.5422   -0.0679   -0.1843 C   0  0  0  0  0  0
    5.7637    2.1649    0.8405 C   0  0  0  0  0  0
    6.2189   -1.2368   -0.7759 C   0  0  0  0  0  0
    6.3353    1.0178    0.2468 C   0  0  0  0  0  0
    6.6335    3.3065    1.2938 C   0  0  0  0  0  0
    6.9102   -1.1235   -1.9992 C   0  0  0  0  0  0
    6.1956   -2.4906   -0.1313 C   0  0  0  0  0  0
    7.8718    3.2234    1.1339 O   0  0  0  0  0  0
    6.0939    4.3069    1.8173 O   0  5  0  0  0  0
    7.5479   -2.2386   -2.5763 C   0  0  0  0  0  0
    6.8300   -3.6077   -0.7058 C   0  0  0  0  0  0
    7.5223   -3.4998   -1.9335 C   0  0  0  0  0  0
    8.1668   -4.7603   -2.5405 C   0  0  0  0  0  0
    9.1677   -4.5137   -3.6951 C   0  0  0  0  0  0
    9.1681   -5.4314   -1.5741 C   0  0  0  0  0  0
    9.5605   -5.8453   -4.3903 C   0  0  0  0  0  0
    9.5748   -6.8461   -2.0682 C   0  0  0  0  0  0
   10.1128   -6.8814   -3.4645 N   0  0  2  0  0  0
   11.5710   -6.7391   -3.4406 C   0  0  0  0  0  0
   12.2673   -7.9507   -2.9689 C   0  0  0  0  0  0
   12.8428   -8.9588   -2.5892 C   0  0  0  0  0  0
   -2.7462    2.5204    0.3310 H   0  0  0  0  0  0
   -2.8407   -1.6508    1.4305 H   0  0  0  0  0  0
   -0.3135    2.3772   -0.0063 H   0  0  0  0  0  0
   -0.4079   -1.7927    1.0985 H   0  0  0  0  0  0
    1.7299    2.1151    1.2107 H   0  0  0  0  0  0
    1.2615   -1.7515   -0.6287 H   0  0  0  0  0  0
    3.6725   -1.9145   -0.9397 H   0  0  0  0  0  0
    3.9030    3.0874    1.4554 H   0  0  0  0  0  0
    7.4071    0.9558    0.1220 H   0  0  0  0  0  0
    6.9446   -0.1714   -2.5088 H   0  0  0  0  0  0
    5.6731   -2.6016    0.8078 H   0  0  0  0  0  0
    8.0540   -2.0974   -3.5178 H   0  0  0  0  0  0
    6.7662   -4.5578   -0.1969 H   0  0  0  0  0  0
    7.3720   -5.4460   -2.8381 H   0  0  0  0  0  0
    8.6850   -3.9165   -4.4676 H   0  0  0  0  0  0
   10.0474   -3.9438   -3.3906 H   0  0  0  0  0  0
   10.0455   -4.8127   -1.3772 H   0  0  0  0  0  0
    8.7044   -5.5732   -0.5990 H   0  0  0  0  0  0
    8.6505   -6.2722   -4.8136 H   0  0  0  0  0  0
   10.2175   -5.6664   -5.2422 H   0  0  0  0  0  0
   10.2456   -7.3253   -1.3551 H   0  0  0  0  0  0
    8.6738   -7.4603   -2.0750 H   0  0  0  0  0  0
   11.9530   -6.5648   -4.4470 H   0  0  0  0  0  0
   11.8718   -5.8865   -2.8302 H   0  0  0  0  0  0
   13.3439   -9.8421   -2.2618 H   0  0  0  0  0  0
  1  2  1  0  0  0
  2  3  1  0  0  0
  2  4  1  0  0  0
  2  5  1  0  0  0
  5  6  2  0  0  0
  5  7  1  0  0  0
  6  8  1  0  0  0
  6 39  1  0  0  0
  7  9  2  0  0  0
  7 40  1  0  0  0
  8 10  2  0  0  0
  8 41  1  0  0  0
  9 10  1  0  0  0
  9 42  1  0  0  0
 10 11  1  0  0  0
 11 12  2  0  0  0
 11 13  1  0  0  0
 12 14  1  0  0  0
 12 43  1  0  0  0
 13 15  2  0  0  0
 13 44  1  0  0  0
 14 16  1  0  0  0
 14 17  2  0  0  0
 15 16  1  0  0  0
 15 45  1  0  0  0
 16 18  2  0  0  0
 17 19  1  0  0  0
 17 46  1  0  0  0
 18 20  1  0  0  0
 18 21  1  0  0  0
 19 22  1  0  0  0
 19 21  2  0  0  0
 20 23  2  0  0  0
 20 24  1  0  0  0
 21 47  1  0  0  0
 22 25  2  0  0  0
 22 26  1  0  0  0
 23 27  1  0  0  0
 23 48  1  0  0  0
 24 28  2  0  0  0
 24 49  1  0  0  0
 27 29  2  0  0  0
 27 50  1  0  0  0
 28 29  1  0  0  0
 28 51  1  0  0  0
 29 30  1  0  0  0
 30 31  1  0  0  0
 30 32  1  0  0  0
 30 52  1  0  0  0
 31 33  1  0  0  0
 31 53  1  0  0  0
 31 54  1  0  0  0
 32 34  1  0  0  0
 32 55  1  0  0  0
 32 56  1  0  0  0
 33 35  1  0  0  0
 33 57  1  0  0  0
 33 58  1  0  0  0
 34 35  1  0  0  0
 34 59  1  0  0  0
 34 60  1  0  0  0
 35 36  1  0  0  0
 36 37  1  0  0  0
 36 61  1  0  0  0
 36 62  1  0  0  0
 37 38  3  0  0  0
 38 63  1  0  0  0
M  CHG  1  26  -1
M  END
> <i_epik_Tot_Q>
-1

> <i_epik_Tot_abs_Q>
1

> <i_lp_mmshare_version>
62121

> <i_m_Source_File_Index>
34

> <i_phase_Input_Structure_Number>
52

> <i_phase_Reference_Structure>
116

> <i_phase_Structure_Number>
52

> <Molecule Name>
66

> <Rotatable Bonds>
6

> <i_f3d_flags>
0

> <b_lp_Chiralities_Consistent>
1

> <r_canvas_IC50_human_P2Y14R,_nM>
139

> <r_canvas_pIC50>
6.85698519974591

> <r_epik_Charging_Adjusted_Penalty>
0.21532815815318

> <r_epik_Ionization_Penalty>
  0.2153

> <r_epik_Ionization_Penalty_Charging>
  0.0007

> <r_epik_Ionization_Penalty_Neutral>
  0.2146

> <r_epik_State_Penalty>
  0.2146

> <r_lp_Energy>
62.083229

> <r_phase_Similarity_to_Reference>
0.838270234331805

> <s_canvas_CHEMBLID>
CHEMBL4854060

> <s_canvas_Compound>
6a

> <s_canvas_Paper>
Jung2020

> <s_epik_cmdline>
J2VwaWtfcHl0aG9uJywgJy1waCcsICc3LjAnLCAnLXRuJywgJzgnLCAnLW1hJywgJzUwMCcsICctaW1hZScsICc8aW5maWxlLm1hZT4nLCAnLW9tYWUnLCAnPG91dGZpbGUubWFlPic=

> <s_epik_input>
RkMoRikoRiljMVtjSF1bY0hdYyhbY0hdW2NIXTEpLWMoW2NIXTIpW2NIXVtjSF1jKGMyMyljKFtjSF1jKFtjSF0zKUMoPU8pW09IXSktYzRbY0hdW2NIXWMoW2NIXVtjSF00KVtDSF01W0NIMl1bQ0gyXU4oW0NIMl1bQ0gyXTUpW0NIMl1DI1tDSF0=

> <s_lp_Force_Field>
S-OPLS

> <s_lp_Variant>
66-1

> <s_m_Source_File>
database-aligned.sdf

> <s_m_Source_Path>
/data/matteo/P2Y14-antagonists-piperidineDerivatives-Wen2023/14052024-optimized-alignment

> <s_m_entry_id>
34

> <s_m_entry_name>
database-aligned.34

> <s_m_job_name>
align_ligands_1

> <s_phase_Alignment_Method>
snapped core

> <s_phase_Alignment_Reason>


> <s_phase_Core_SMARTS>
a1aaaaa1-a(a2)aaa(a23)a(aaa3)-a4aaa(aa4)A5AA[A]AA5

$$$$
67
                    3D
 Schrodinger Suite 2023-2.
 68 72  0  0  1  0            999 V2000
   -5.0261    1.4324    0.2838 F   0  0  0  0  0  0
   -4.4843    0.5364    1.1094 C   0  0  0  0  0  0
   -4.7261    0.9091    2.3654 F   0  0  0  0  0  0
   -5.0718   -0.6406    0.8904 F   0  0  0  0  0  0
   -2.9805    0.4435    0.8954 C   0  0  0  0  0  0
   -2.2454    1.5776    0.4941 C   0  0  0  0  0  0
   -2.2992   -0.7723    1.1122 C   0  0  0  0  0  0
   -0.8521    1.4946    0.3065 C   0  0  0  0  0  0
   -0.9062   -0.8510    0.9207 C   0  0  0  0  0  0
   -0.1610    0.2796    0.5158 C   0  0  0  0  0  0
    1.3001    0.1930    0.3226 C   0  0  0  0  0  0
    2.1524    1.2383    0.7416 C   0  0  0  0  0  0
    1.8847   -0.9390   -0.2850 C   0  0  0  0  0  0
    3.5501    1.1548    0.5712 C   0  0  0  0  0  0
    3.2777   -1.0307   -0.4622 C   0  0  0  0  0  0
    4.1320    0.0089   -0.0274 C   0  0  0  0  0  0
    4.3632    2.2211    1.0016 C   0  0  0  0  0  0
    5.5422   -0.0679   -0.1843 C   0  0  0  0  0  0
    5.7637    2.1649    0.8405 C   0  0  0  0  0  0
    6.2189   -1.2368   -0.7759 C   0  0  0  0  0  0
    6.3353    1.0178    0.2468 C   0  0  0  0  0  0
    6.6335    3.3065    1.2938 C   0  0  0  0  0  0
    6.9102   -1.1235   -1.9992 C   0  0  0  0  0  0
    6.1956   -2.4906   -0.1313 C   0  0  0  0  0  0
    7.8718    3.2234    1.1339 O   0  0  0  0  0  0
    6.0939    4.3069    1.8173 O   0  5  0  0  0  0
    7.5479   -2.2386   -2.5763 C   0  0  0  0  0  0
    6.8300   -3.6077   -0.7058 C   0  0  0  0  0  0
    7.5223   -3.4998   -1.9335 C   0  0  0  0  0  0
    8.1668   -4.7603   -2.5405 C   0  0  1  0  0  0
    9.1677   -4.5137   -3.6951 C   0  0  0  0  0  0
    9.1681   -5.4314   -1.5741 C   0  0  0  0  0  0
    9.5605   -5.8453   -4.3903 C   0  0  0  0  0  0
    9.5748   -6.8461   -2.0682 C   0  0  0  0  0  0
   10.1128   -6.8814   -3.4645 N   0  3  1  0  0  0
   10.1460   -8.2352   -4.0736 C   0  0  0  0  0  0
   11.0597   -9.2214   -3.3214 C   0  0  0  0  0  0
   12.5325   -8.7906   -3.2943 C   0  0  0  0  0  0
   -2.7526    2.5161    0.3252 H   0  0  0  0  0  0
   -2.8362   -1.6555    1.4250 H   0  0  0  0  0  0
   -0.3138    2.3767   -0.0084 H   0  0  0  0  0  0
   -0.4079   -1.7928    1.0982 H   0  0  0  0  0  0
    1.7299    2.1154    1.2106 H   0  0  0  0  0  0
    1.2613   -1.7508   -0.6299 H   0  0  0  0  0  0
    3.6723   -1.9138   -0.9410 H   0  0  0  0  0  0
    3.9030    3.0874    1.4552 H   0  0  0  0  0  0
    7.4069    0.9557    0.1218 H   0  0  0  0  0  0
    6.9437   -0.1715   -2.5089 H   0  0  0  0  0  0
    5.6729   -2.6013    0.8077 H   0  0  0  0  0  0
    8.0531   -2.0966   -3.5183 H   0  0  0  0  0  0
    6.7654   -4.5574   -0.1963 H   0  0  0  0  0  0
    7.3715   -5.4455   -2.8379 H   0  0  0  0  0  0
    8.6880   -3.9134   -4.4672 H   0  0  0  0  0  0
   10.0478   -3.9455   -3.3882 H   0  0  0  0  0  0
   10.0464   -4.8125   -1.3811 H   0  0  0  0  0  0
    8.7076   -5.5698   -0.5968 H   0  0  0  0  0  0
    8.6682   -6.2542   -4.8674 H   0  0  0  0  0  0
   10.2789   -5.6580   -5.1890 H   0  0  0  0  0  0
   10.3064   -7.2760   -1.3839 H   0  0  0  0  0  0
    8.6928   -7.4871   -2.0242 H   0  0  0  0  0  0
    9.1311   -8.6321   -4.1249 H   0  0  0  0  0  0
   10.4971   -8.1525   -5.1033 H   0  0  0  0  0  0
   10.7011   -9.3812   -2.3044 H   0  0  0  0  0  0
   10.9940  -10.1941   -3.8107 H   0  0  0  0  0  0
   13.1463   -9.5420   -2.7968 H   0  0  0  0  0  0
   12.6623   -7.8524   -2.7549 H   0  0  0  0  0  0
   12.9235   -8.6566   -4.3034 H   0  0  0  0  0  0
   11.0805   -6.6108   -3.3592 H   0  0  0  0  0  0
  1  2  1  0  0  0
  2  3  1  0  0  0
  2  4  1  0  0  0
  2  5  1  0  0  0
  5  6  2  0  0  0
  5  7  1  0  0  0
  6  8  1  0  0  0
  6 39  1  0  0  0
  7  9  2  0  0  0
  7 40  1  0  0  0
  8 10  2  0  0  0
  8 41  1  0  0  0
  9 10  1  0  0  0
  9 42  1  0  0  0
 10 11  1  0  0  0
 11 12  2  0  0  0
 11 13  1  0  0  0
 12 14  1  0  0  0
 12 43  1  0  0  0
 13 15  2  0  0  0
 13 44  1  0  0  0
 14 16  1  0  0  0
 14 17  2  0  0  0
 15 16  1  0  0  0
 15 45  1  0  0  0
 16 18  2  0  0  0
 17 19  1  0  0  0
 17 46  1  0  0  0
 18 20  1  0  0  0
 18 21  1  0  0  0
 19 22  1  0  0  0
 19 21  2  0  0  0
 20 23  2  0  0  0
 20 24  1  0  0  0
 21 47  1  0  0  0
 22 25  2  0  0  0
 22 26  1  0  0  0
 23 27  1  0  0  0
 23 48  1  0  0  0
 24 28  2  0  0  0
 24 49  1  0  0  0
 27 29  2  0  0  0
 27 50  1  0  0  0
 28 29  1  0  0  0
 28 51  1  0  0  0
 29 30  1  0  0  0
 30 31  1  0  0  0
 30 32  1  0  0  0
 30 52  1  0  0  0
 31 33  1  0  0  0
 31 53  1  0  0  0
 31 54  1  0  0  0
 32 34  1  0  0  0
 32 55  1  0  0  0
 32 56  1  0  0  0
 33 35  1  0  0  0
 33 57  1  0  0  0
 33 58  1  0  0  0
 34 35  1  0  0  0
 34 59  1  0  0  0
 34 60  1  0  0  0
 35 36  1  0  0  0
 35 68  1  0  0  0
 36 37  1  0  0  0
 36 61  1  0  0  0
 36 62  1  0  0  0
 37 38  1  0  0  0
 37 63  1  0  0  0
 37 64  1  0  0  0
 38 65  1  0  0  0
 38 66  1  0  0  0
 38 67  1  0  0  0
M  CHG  2  26  -1  35   1
M  END
> <i_epik_Tot_Q>
0

> <i_epik_Tot_abs_Q>
2

> <i_lp_mmshare_version>
62121

> <i_m_Source_File_Index>
35

> <i_phase_Input_Structure_Number>
53

> <i_phase_Reference_Structure>
116

> <i_phase_Structure_Number>
53

> <Molecule Name>
67

> <Rotatable Bonds>
7

> <i_f3d_flags>
0

> <b_lp_Chiralities_Consistent>
1

> <r_canvas_IC50_human_P2Y14R,_nM>
133

> <r_canvas_pIC50>
6.87614835903291

> <r_epik_Charging_Adjusted_Penalty>
0.00219037633780135

> <r_epik_Ionization_Penalty>
  0.0022

> <r_epik_Ionization_Penalty_Charging>
  0.0022

> <r_epik_Ionization_Penalty_Neutral>
  0.0000

> <r_epik_State_Penalty>
  0.0000

> <r_lp_Energy>
70.392935

> <r_lp_tautomer_probability>
1

> <r_phase_Similarity_to_Reference>
0.821216401439742

> <s_canvas_CHEMBLID>
CHEMBL4853466

> <s_canvas_Compound>
6b

> <s_canvas_Paper>
Jung2020

> <s_epik_cmdline>
J2VwaWtfcHl0aG9uJywgJy1waCcsICc3LjAnLCAnLXRuJywgJzgnLCAnLW1hJywgJzUwMCcsICctaW1hZScsICc8aW5maWxlLm1hZT4nLCAnLW9tYWUnLCAnPG91dGZpbGUubWFlPic=

> <s_epik_input>
RkMoRikoRiljMVtjSF1bY0hdYyhbY0hdW2NIXTEpLWMoW2NIXTIpW2NIXVtjSF1jKGMyMyljKFtjSF1jKFtjSF0zKUMoPU8pW09IXSktYzRbY0hdW2NIXWMoW2NIXVtjSF00KVtDSF01W0NIMl1bQ0gyXU4oW0NIMl1bQ0gyXTUpW0NIMl1bQ0gyXVtDSDNd

> <s_lp_Force_Field>
S-OPLS

> <s_lp_Variant>
67-1

> <s_m_Source_File>
database-aligned.sdf

> <s_m_Source_Path>
/data/matteo/P2Y14-antagonists-piperidineDerivatives-Wen2023/14052024-optimized-alignment

> <s_m_entry_id>
35

> <s_m_entry_name>
database-aligned.35

> <s_m_job_name>
align_ligands_1

> <s_phase_Alignment_Method>
snapped core

> <s_phase_Alignment_Reason>


> <s_phase_Core_SMARTS>
a1aaaaa1-a(a2)aaa(a23)a(aaa3)-a4aaa(aa4)A5AA[A]AA5

$$$$
68
                    3D
 Schrodinger Suite 2023-2.
 73 77  0  0  1  0            999 V2000
   -5.0261    1.4324    0.2838 F   0  0  0  0  0  0
   -4.4843    0.5364    1.1094 C   0  0  0  0  0  0
   -4.7261    0.9091    2.3654 F   0  0  0  0  0  0
   -5.0718   -0.6406    0.8904 F   0  0  0  0  0  0
   -2.9805    0.4435    0.8954 C   0  0  0  0  0  0
   -2.2992   -0.7723    1.1122 C   0  0  0  0  0  0
   -2.2454    1.5776    0.4941 C   0  0  0  0  0  0
   -0.9062   -0.8510    0.9207 C   0  0  0  0  0  0
   -0.8521    1.4946    0.3065 C   0  0  0  0  0  0
   -0.1610    0.2796    0.5158 C   0  0  0  0  0  0
    1.3001    0.1930    0.3226 C   0  0  0  0  0  0
    2.1524    1.2383    0.7416 C   0  0  0  0  0  0
    1.8847   -0.9390   -0.2850 C   0  0  0  0  0  0
    3.5501    1.1548    0.5712 C   0  0  0  0  0  0
    3.2777   -1.0307   -0.4622 C   0  0  0  0  0  0
    4.1320    0.0089   -0.0274 C   0  0  0  0  0  0
    4.3632    2.2211    1.0016 C   0  0  0  0  0  0
    5.5422   -0.0679   -0.1843 C   0  0  0  0  0  0
    5.7637    2.1649    0.8405 C   0  0  0  0  0  0
    6.2189   -1.2368   -0.7759 C   0  0  0  0  0  0
    6.3353    1.0178    0.2468 C   0  0  0  0  0  0
    6.6335    3.3065    1.2938 C   0  0  0  0  0  0
    6.9102   -1.1235   -1.9992 C   0  0  0  0  0  0
    6.1956   -2.4906   -0.1313 C   0  0  0  0  0  0
    7.8718    3.2234    1.1339 O   0  0  0  0  0  0
    6.0939    4.3069    1.8173 O   0  5  0  0  0  0
    7.5479   -2.2386   -2.5763 C   0  0  0  0  0  0
    6.8300   -3.6077   -0.7058 C   0  0  0  0  0  0
    7.5223   -3.4998   -1.9335 C   0  0  0  0  0  0
    8.1668   -4.7603   -2.5405 C   0  0  1  0  0  0
    9.1677   -4.5137   -3.6951 C   0  0  0  0  0  0
    9.1681   -5.4314   -1.5741 C   0  0  0  0  0  0
    9.5605   -5.8453   -4.3903 C   0  0  0  0  0  0
    9.5748   -6.8461   -2.0682 C   0  0  0  0  0  0
   10.1128   -6.8814   -3.4645 N   0  3  1  0  0  0
   10.1549   -8.2351   -4.0739 C   0  0  0  0  0  0
   11.0181   -9.2352   -3.2816 C   0  0  0  0  0  0
   12.4966   -8.8126   -3.1640 C   0  0  0  0  0  0
   13.3832   -9.8202   -2.4099 C   0  0  0  0  0  0
   13.0095  -10.0312   -1.0000 C   0  0  0  0  0  0
   12.6829  -10.2061    0.1636 C   0  0  0  0  0  0
   -2.8411   -1.6510    1.4301 H   0  0  0  0  0  0
   -2.7466    2.5202    0.3303 H   0  0  0  0  0  0
   -0.4078   -1.7925    1.0991 H   0  0  0  0  0  0
   -0.3135    2.3772   -0.0066 H   0  0  0  0  0  0
    1.7300    2.1149    1.2112 H   0  0  0  0  0  0
    1.2615   -1.7513   -0.6291 H   0  0  0  0  0  0
    3.6722   -1.9143   -0.9401 H   0  0  0  0  0  0
    3.9027    3.0874    1.4554 H   0  0  0  0  0  0
    7.4071    0.9554    0.1220 H   0  0  0  0  0  0
    6.9442   -0.1712   -2.5086 H   0  0  0  0  0  0
    5.6730   -2.6012    0.8078 H   0  0  0  0  0  0
    8.0537   -2.0963   -3.5179 H   0  0  0  0  0  0
    6.7657   -4.5573   -0.1964 H   0  0  0  0  0  0
    7.3714   -5.4454   -2.8380 H   0  0  0  0  0  0
    8.6900   -3.9115   -4.4671 H   0  0  0  0  0  0
   10.0487   -3.9473   -3.3870 H   0  0  0  0  0  0
   10.0466   -4.8127   -1.3811 H   0  0  0  0  0  0
    8.7078   -5.5697   -0.5966 H   0  0  0  0  0  0
    8.6688   -6.2546   -4.8680 H   0  0  0  0  0  0
   10.2795   -5.6579   -5.1885 H   0  0  0  0  0  0
   10.3073   -7.2736   -1.3831 H   0  0  0  0  0  0
    8.6945   -7.4892   -2.0232 H   0  0  0  0  0  0
    9.1376   -8.6182   -4.1681 H   0  0  0  0  0  0
   10.5499   -8.1541   -5.0877 H   0  0  0  0  0  0
   10.5848   -9.3977   -2.2949 H   0  0  0  0  0  0
   10.9712  -10.2036   -3.7811 H   0  0  0  0  0  0
   12.9059   -8.6711   -4.1649 H   0  0  0  0  0  0
   12.5679   -7.8415   -2.6721 H   0  0  0  0  0  0
   13.3638  -10.7895   -2.9086 H   0  0  0  0  0  0
   14.4191   -9.4800   -2.4215 H   0  0  0  0  0  0
   12.3979  -10.3644    1.1797 H   0  0  0  0  0  0
   11.0792   -6.6083   -3.3559 H   0  0  0  0  0  0
  1  2  1  0  0  0
  2  3  1  0  0  0
  2  4  1  0  0  0
  2  5  1  0  0  0
  5  6  2  0  0  0
  5  7  1  0  0  0
  6  8  1  0  0  0
  6 42  1  0  0  0
  7  9  2  0  0  0
  7 43  1  0  0  0
  8 10  2  0  0  0
  8 44  1  0  0  0
  9 10  1  0  0  0
  9 45  1  0  0  0
 10 11  1  0  0  0
 11 12  2  0  0  0
 11 13  1  0  0  0
 12 14  1  0  0  0
 12 46  1  0  0  0
 13 15  2  0  0  0
 13 47  1  0  0  0
 14 16  1  0  0  0
 14 17  2  0  0  0
 15 16  1  0  0  0
 15 48  1  0  0  0
 16 18  2  0  0  0
 17 19  1  0  0  0
 17 49  1  0  0  0
 18 20  1  0  0  0
 18 21  1  0  0  0
 19 22  1  0  0  0
 19 21  2  0  0  0
 20 23  2  0  0  0
 20 24  1  0  0  0
 21 50  1  0  0  0
 22 25  2  0  0  0
 22 26  1  0  0  0
 23 27  1  0  0  0
 23 51  1  0  0  0
 24 28  2  0  0  0
 24 52  1  0  0  0
 27 29  2  0  0  0
 27 53  1  0  0  0
 28 29  1  0  0  0
 28 54  1  0  0  0
 29 30  1  0  0  0
 30 31  1  0  0  0
 30 32  1  0  0  0
 30 55  1  0  0  0
 31 33  1  0  0  0
 31 56  1  0  0  0
 31 57  1  0  0  0
 32 34  1  0  0  0
 32 58  1  0  0  0
 32 59  1  0  0  0
 33 35  1  0  0  0
 33 60  1  0  0  0
 33 61  1  0  0  0
 34 35  1  0  0  0
 34 62  1  0  0  0
 34 63  1  0  0  0
 35 36  1  0  0  0
 35 73  1  0  0  0
 36 37  1  0  0  0
 36 64  1  0  0  0
 36 65  1  0  0  0
 37 38  1  0  0  0
 37 66  1  0  0  0
 37 67  1  0  0  0
 38 39  1  0  0  0
 38 68  1  0  0  0
 38 69  1  0  0  0
 39 40  1  0  0  0
 39 70  1  0  0  0
 39 71  1  0  0  0
 40 41  3  0  0  0
 41 72  1  0  0  0
M  CHG  2  26  -1  35   1
M  END
> <i_epik_Tot_Q>
0

> <i_epik_Tot_abs_Q>
2

> <i_lp_mmshare_version>
62121

> <i_m_Source_File_Index>
36

> <i_phase_Input_Structure_Number>
54

> <i_phase_Reference_Structure>
116

> <i_phase_Structure_Number>
54

> <Molecule Name>
68

> <Rotatable Bonds>
9

> <i_f3d_flags>
0

> <b_lp_Chiralities_Consistent>
1

> <r_canvas_IC50_human_P2Y14R,_nM>
76.3

> <r_canvas_pIC50>
7.11747546204512

> <r_epik_Charging_Adjusted_Penalty>
0.00289131340522223

> <r_epik_Ionization_Penalty>
  0.0029

> <r_epik_Ionization_Penalty_Charging>
  0.0029

> <r_epik_Ionization_Penalty_Neutral>
  0.0000

> <r_epik_State_Penalty>
  0.0000

> <r_lp_Energy>
70.148513

> <r_lp_tautomer_probability>
1

> <r_phase_Similarity_to_Reference>
0.864418981284859

> <s_canvas_CHEMBLID>
CHEMBL4853085

> <s_canvas_Compound>
7a

> <s_canvas_Paper>
Jung2020

> <s_epik_cmdline>
J2VwaWtfcHl0aG9uJywgJy1waCcsICc3LjAnLCAnLXRuJywgJzgnLCAnLW1hJywgJzUwMCcsICctaW1hZScsICc8aW5maWxlLm1hZT4nLCAnLW9tYWUnLCAnPG91dGZpbGUubWFlPic=

> <s_epik_input>
RkMoRikoRiljMVtjSF1bY0hdYyhbY0hdW2NIXTEpLWMoW2NIXTIpW2NIXVtjSF1jKGMyMyljKFtjSF1jKFtjSF0zKUMoPU8pW09IXSktYzRbY0hdW2NIXWMoW2NIXVtjSF00KVtDSF01W0NIMl1bQ0gyXU4oW0NIMl1bQ0gyXTUpW0NIMl1bQ0gyXVtDSDJdW0NIMl1DI1tDSF0=

> <s_lp_Force_Field>
S-OPLS

> <s_lp_Variant>
68-1

> <s_m_Source_File>
database-aligned.sdf

> <s_m_Source_Path>
/data/matteo/P2Y14-antagonists-piperidineDerivatives-Wen2023/14052024-optimized-alignment

> <s_m_entry_id>
36

> <s_m_entry_name>
database-aligned.36

> <s_m_job_name>
align_ligands_1

> <s_phase_Alignment_Method>
snapped core

> <s_phase_Alignment_Reason>


> <s_phase_Core_SMARTS>
a1aaaaa1-a(a2)aaa(a23)a(aaa3)-a4aaa(aa4)A5AA[A]AA5

$$$$
69
                    3D
 Schrodinger Suite 2023-2.
 77 81  0  0  1  0            999 V2000
   -5.0261    1.4324    0.2838 F   0  0  0  0  0  0
   -4.4843    0.5364    1.1094 C   0  0  0  0  0  0
   -4.7261    0.9091    2.3654 F   0  0  0  0  0  0
   -5.0718   -0.6406    0.8904 F   0  0  0  0  0  0
   -2.9805    0.4435    0.8954 C   0  0  0  0  0  0
   -2.2992   -0.7723    1.1122 C   0  0  0  0  0  0
   -2.2454    1.5776    0.4941 C   0  0  0  0  0  0
   -0.9062   -0.8510    0.9207 C   0  0  0  0  0  0
   -0.8521    1.4946    0.3065 C   0  0  0  0  0  0
   -0.1610    0.2796    0.5158 C   0  0  0  0  0  0
    1.3001    0.1930    0.3226 C   0  0  0  0  0  0
    2.1524    1.2383    0.7416 C   0  0  0  0  0  0
    1.8847   -0.9390   -0.2850 C   0  0  0  0  0  0
    3.5501    1.1548    0.5712 C   0  0  0  0  0  0
    3.2777   -1.0307   -0.4622 C   0  0  0  0  0  0
    4.1320    0.0089   -0.0274 C   0  0  0  0  0  0
    4.3632    2.2211    1.0016 C   0  0  0  0  0  0
    5.5422   -0.0679   -0.1843 C   0  0  0  0  0  0
    5.7637    2.1649    0.8405 C   0  0  0  0  0  0
    6.2189   -1.2368   -0.7759 C   0  0  0  0  0  0
    6.3353    1.0178    0.2468 C   0  0  0  0  0  0
    6.6335    3.3065    1.2938 C   0  0  0  0  0  0
    6.9102   -1.1235   -1.9992 C   0  0  0  0  0  0
    6.1956   -2.4906   -0.1313 C   0  0  0  0  0  0
    7.8718    3.2234    1.1339 O   0  0  0  0  0  0
    6.0939    4.3069    1.8173 O   0  5  0  0  0  0
    7.5479   -2.2386   -2.5763 C   0  0  0  0  0  0
    6.8300   -3.6077   -0.7058 C   0  0  0  0  0  0
    7.5223   -3.4998   -1.9335 C   0  0  0  0  0  0
    8.1668   -4.7603   -2.5405 C   0  0  1  0  0  0
    9.1677   -4.5137   -3.6951 C   0  0  0  0  0  0
    9.1681   -5.4314   -1.5741 C   0  0  0  0  0  0
    9.5605   -5.8453   -4.3903 C   0  0  0  0  0  0
    9.5748   -6.8461   -2.0682 C   0  0  0  0  0  0
   10.1128   -6.8814   -3.4645 N   0  3  1  0  0  0
   10.1511   -8.2350   -4.0744 C   0  0  0  0  0  0
   11.0289   -9.2319   -3.2942 C   0  0  0  0  0  0
   12.5061   -8.8069   -3.2043 C   0  0  0  0  0  0
   13.4092   -9.8325   -2.4942 C   0  0  0  0  0  0
   13.0843  -10.0804   -1.0087 C   0  0  0  0  0  0
   13.2482   -8.8429   -0.1162 C   0  0  0  0  0  0
   -2.8364   -1.6554    1.4249 H   0  0  0  0  0  0
   -2.7525    2.5163    0.3258 H   0  0  0  0  0  0
   -0.4079   -1.7928    1.0980 H   0  0  0  0  0  0
   -0.3138    2.3768   -0.0080 H   0  0  0  0  0  0
    1.7300    2.1153    1.2106 H   0  0  0  0  0  0
    1.2614   -1.7511   -0.6294 H   0  0  0  0  0  0
    3.6723   -1.9141   -0.9405 H   0  0  0  0  0  0
    3.9025    3.0872    1.4551 H   0  0  0  0  0  0
    7.4070    0.9560    0.1219 H   0  0  0  0  0  0
    6.9444   -0.1713   -2.5085 H   0  0  0  0  0  0
    5.6731   -2.6012    0.8078 H   0  0  0  0  0  0
    8.0537   -2.0960   -3.5179 H   0  0  0  0  0  0
    6.7658   -4.5573   -0.1963 H   0  0  0  0  0  0
    7.3713   -5.4453   -2.8379 H   0  0  0  0  0  0
    8.6899   -3.9116   -4.4671 H   0  0  0  0  0  0
   10.0487   -3.9476   -3.3867 H   0  0  0  0  0  0
   10.0474   -4.8131   -1.3833 H   0  0  0  0  0  0
    8.7095   -5.5684   -0.5957 H   0  0  0  0  0  0
    8.6704   -6.2541   -4.8714 H   0  0  0  0  0  0
   10.2823   -5.6569   -5.1857 H   0  0  0  0  0  0
   10.3068   -7.2742   -1.3835 H   0  0  0  0  0  0
    8.6942   -7.4889   -2.0234 H   0  0  0  0  0  0
    9.1341   -8.6211   -4.1565 H   0  0  0  0  0  0
   10.5330   -8.1537   -5.0932 H   0  0  0  0  0  0
   10.6152   -9.3892   -2.2988 H   0  0  0  0  0  0
   10.9723  -10.2016   -3.7903 H   0  0  0  0  0  0
   12.8880   -8.6536   -4.2143 H   0  0  0  0  0  0
   12.5913   -7.8400   -2.7086 H   0  0  0  0  0  0
   13.3595  -10.7809   -3.0308 H   0  0  0  0  0  0
   14.4457   -9.5022   -2.5749 H   0  0  0  0  0  0
   12.0763  -10.4798   -0.9012 H   0  0  0  0  0  0
   13.7496  -10.8606   -0.6374 H   0  0  0  0  0  0
   13.0850   -9.1004    0.9307 H   0  0  0  0  0  0
   12.5327   -8.0621   -0.3743 H   0  0  0  0  0  0
   14.2514   -8.4249   -0.2026 H   0  0  0  0  0  0
   11.0795   -6.6091   -3.3566 H   0  0  0  0  0  0
  1  2  1  0  0  0
  2  3  1  0  0  0
  2  4  1  0  0  0
  2  5  1  0  0  0
  5  6  2  0  0  0
  5  7  1  0  0  0
  6  8  1  0  0  0
  6 42  1  0  0  0
  7  9  2  0  0  0
  7 43  1  0  0  0
  8 10  2  0  0  0
  8 44  1  0  0  0
  9 10  1  0  0  0
  9 45  1  0  0  0
 10 11  1  0  0  0
 11 12  2  0  0  0
 11 13  1  0  0  0
 12 14  1  0  0  0
 12 46  1  0  0  0
 13 15  2  0  0  0
 13 47  1  0  0  0
 14 16  1  0  0  0
 14 17  2  0  0  0
 15 16  1  0  0  0
 15 48  1  0  0  0
 16 18  2  0  0  0
 17 19  1  0  0  0
 17 49  1  0  0  0
 18 20  1  0  0  0
 18 21  1  0  0  0
 19 22  1  0  0  0
 19 21  2  0  0  0
 20 23  2  0  0  0
 20 24  1  0  0  0
 21 50  1  0  0  0
 22 25  2  0  0  0
 22 26  1  0  0  0
 23 27  1  0  0  0
 23 51  1  0  0  0
 24 28  2  0  0  0
 24 52  1  0  0  0
 27 29  2  0  0  0
 27 53  1  0  0  0
 28 29  1  0  0  0
 28 54  1  0  0  0
 29 30  1  0  0  0
 30 31  1  0  0  0
 30 32  1  0  0  0
 30 55  1  0  0  0
 31 33  1  0  0  0
 31 56  1  0  0  0
 31 57  1  0  0  0
 32 34  1  0  0  0
 32 58  1  0  0  0
 32 59  1  0  0  0
 33 35  1  0  0  0
 33 60  1  0  0  0
 33 61  1  0  0  0
 34 35  1  0  0  0
 34 62  1  0  0  0
 34 63  1  0  0  0
 35 36  1  0  0  0
 35 77  1  0  0  0
 36 37  1  0  0  0
 36 64  1  0  0  0
 36 65  1  0  0  0
 37 38  1  0  0  0
 37 66  1  0  0  0
 37 67  1  0  0  0
 38 39  1  0  0  0
 38 68  1  0  0  0
 38 69  1  0  0  0
 39 40  1  0  0  0
 39 70  1  0  0  0
 39 71  1  0  0  0
 40 41  1  0  0  0
 40 72  1  0  0  0
 40 73  1  0  0  0
 41 74  1  0  0  0
 41 75  1  0  0  0
 41 76  1  0  0  0
M  CHG  2  26  -1  35   1
M  END
> <i_epik_Tot_Q>
0

> <i_epik_Tot_abs_Q>
2

> <i_lp_mmshare_version>
62121

> <i_m_Source_File_Index>
37

> <i_phase_Input_Structure_Number>
55

> <i_phase_Reference_Structure>
116

> <i_phase_Structure_Number>
55

> <Molecule Name>
69

> <Rotatable Bonds>
10

> <i_f3d_flags>
0

> <b_lp_Chiralities_Consistent>
1

> <r_canvas_IC50_human_P2Y14R,_nM>
131

> <r_canvas_pIC50>
6.88272870434424

> <r_epik_Charging_Adjusted_Penalty>
0.00207659757369228

> <r_epik_Ionization_Penalty>
  0.0021

> <r_epik_Ionization_Penalty_Charging>
  0.0021

> <r_epik_Ionization_Penalty_Neutral>
  0.0000

> <r_epik_State_Penalty>
  0.0000

> <r_lp_Energy>
71.987902

> <r_lp_tautomer_probability>
1

> <r_phase_Similarity_to_Reference>
0.866941363132587

> <s_canvas_CHEMBLID>
CHEMBL4852625

> <s_canvas_Compound>
7b

> <s_canvas_Paper>
Jung2020

> <s_epik_cmdline>
J2VwaWtfcHl0aG9uJywgJy1waCcsICc3LjAnLCAnLXRuJywgJzgnLCAnLW1hJywgJzUwMCcsICctaW1hZScsICc8aW5maWxlLm1hZT4nLCAnLW9tYWUnLCAnPG91dGZpbGUubWFlPic=

> <s_epik_input>
RkMoRikoRiljMVtjSF1bY0hdYyhbY0hdW2NIXTEpLWMoW2NIXTIpW2NIXVtjSF1jKGMyMyljKFtjSF1jKFtjSF0zKUMoPU8pW09IXSktYzRbY0hdW2NIXWMoW2NIXVtjSF00KVtDSF01W0NIMl1bQ0gyXU4oW0NIMl1bQ0gyXTUpW0NIMl1bQ0gyXVtDSDJdW0NIMl1bQ0gyXVtDSDNd

> <s_lp_Force_Field>
S-OPLS

> <s_lp_Variant>
69-1

> <s_m_Source_File>
database-aligned.sdf

> <s_m_Source_Path>
/data/matteo/P2Y14-antagonists-piperidineDerivatives-Wen2023/14052024-optimized-alignment

> <s_m_entry_id>
37

> <s_m_entry_name>
database-aligned.37

> <s_m_job_name>
align_ligands_1

> <s_phase_Alignment_Method>
snapped core

> <s_phase_Alignment_Reason>


> <s_phase_Core_SMARTS>
a1aaaaa1-a(a2)aaa(a23)a(aaa3)-a4aaa(aa4)A5AA[A]AA5

$$$$
70
                    3D
 Schrodinger Suite 2023-2.
 63 67  0  0  1  0            999 V2000
   -5.0261    1.4324    0.2838 F   0  0  0  0  0  0
   -4.4843    0.5364    1.1094 C   0  0  0  0  0  0
   -4.7261    0.9091    2.3654 F   0  0  0  0  0  0
   -5.0718   -0.6406    0.8904 F   0  0  0  0  0  0
   -2.9805    0.4435    0.8954 C   0  0  0  0  0  0
   -2.2992   -0.7723    1.1122 C   0  0  0  0  0  0
   -2.2454    1.5776    0.4941 C   0  0  0  0  0  0
   -0.9062   -0.8510    0.9207 C   0  0  0  0  0  0
   -0.8521    1.4946    0.3065 C   0  0  0  0  0  0
   -0.1610    0.2796    0.5158 C   0  0  0  0  0  0
    1.3001    0.1930    0.3226 C   0  0  0  0  0  0
    2.1524    1.2383    0.7416 C   0  0  0  0  0  0
    1.8847   -0.9390   -0.2850 C   0  0  0  0  0  0
    3.5501    1.1548    0.5712 C   0  0  0  0  0  0
    3.2777   -1.0307   -0.4622 C   0  0  0  0  0  0
    4.1320    0.0089   -0.0274 C   0  0  0  0  0  0
    4.3632    2.2211    1.0016 C   0  0  0  0  0  0
    5.5422   -0.0679   -0.1843 C   0  0  0  0  0  0
    5.7637    2.1649    0.8405 C   0  0  0  0  0  0
    6.2189   -1.2368   -0.7759 C   0  0  0  0  0  0
    6.3353    1.0178    0.2468 C   0  0  0  0  0  0
    6.6335    3.3065    1.2938 C   0  0  0  0  0  0
    6.9102   -1.1235   -1.9992 C   0  0  0  0  0  0
    6.1956   -2.4906   -0.1313 C   0  0  0  0  0  0
    7.8718    3.2234    1.1339 O   0  0  0  0  0  0
    6.0939    4.3069    1.8173 O   0  5  0  0  0  0
    7.5479   -2.2386   -2.5763 C   0  0  0  0  0  0
    6.8300   -3.6077   -0.7058 C   0  0  0  0  0  0
    7.5223   -3.4998   -1.9335 C   0  0  0  0  0  0
    8.1668   -4.7603   -2.5405 C   0  0  0  0  0  0
    9.1681   -5.4314   -1.5741 C   0  0  0  0  0  0
    9.1677   -4.5137   -3.6951 C   0  0  0  0  0  0
    9.5748   -6.8461   -2.0682 C   0  0  0  0  0  0
    9.5605   -5.8453   -4.3903 C   0  0  0  0  0  0
   10.1128   -6.8814   -3.4645 N   0  0  0  0  0  0
   10.9486   -7.8453   -3.9177 C   0  0  0  0  0  0
   11.3462   -7.8876   -5.0822 O   0  0  0  0  0  0
   11.4171   -8.9411   -2.9566 C   0  0  0  0  0  0
   -2.8409   -1.6508    1.4303 H   0  0  0  0  0  0
   -2.7462    2.5203    0.3303 H   0  0  0  0  0  0
   -0.4078   -1.7925    1.0992 H   0  0  0  0  0  0
   -0.3136    2.3772   -0.0067 H   0  0  0  0  0  0
    1.7300    2.1156    1.2102 H   0  0  0  0  0  0
    1.2615   -1.7512   -0.6292 H   0  0  0  0  0  0
    3.6723   -1.9143   -0.9403 H   0  0  0  0  0  0
    3.9023    3.0873    1.4548 H   0  0  0  0  0  0
    7.4070    0.9557    0.1213 H   0  0  0  0  0  0
    6.9445   -0.1713   -2.5086 H   0  0  0  0  0  0
    5.6731   -2.6013    0.8078 H   0  0  0  0  0  0
    8.0541   -2.0970   -3.5178 H   0  0  0  0  0  0
    6.7664   -4.5578   -0.1970 H   0  0  0  0  0  0
    7.3721   -5.4460   -2.8383 H   0  0  0  0  0  0
   10.0471   -4.8129   -1.3831 H   0  0  0  0  0  0
    8.7081   -5.5693   -0.5965 H   0  0  0  0  0  0
    8.6889   -3.9126   -4.4672 H   0  0  0  0  0  0
   10.0490   -3.9478   -3.3872 H   0  0  0  0  0  0
   10.2998   -7.2406   -1.3562 H   0  0  0  0  0  0
    8.7088   -7.5081   -2.0254 H   0  0  0  0  0  0
    8.6847   -6.2710   -4.8819 H   0  0  0  0  0  0
   10.2735   -5.6130   -5.1830 H   0  0  0  0  0  0
   10.5690   -9.4318   -2.4782 H   0  0  0  0  0  0
   12.0663   -8.5248   -2.1858 H   0  0  0  0  0  0
   11.9831   -9.7038   -3.4925 H   0  0  0  0  0  0
  1  2  1  0  0  0
  2  3  1  0  0  0
  2  4  1  0  0  0
  2  5  1  0  0  0
  5  6  2  0  0  0
  5  7  1  0  0  0
  6  8  1  0  0  0
  6 39  1  0  0  0
  7  9  2  0  0  0
  7 40  1  0  0  0
  8 10  2  0  0  0
  8 41  1  0  0  0
  9 10  1  0  0  0
  9 42  1  0  0  0
 10 11  1  0  0  0
 11 12  2  0  0  0
 11 13  1  0  0  0
 12 14  1  0  0  0
 12 43  1  0  0  0
 13 15  2  0  0  0
 13 44  1  0  0  0
 14 16  1  0  0  0
 14 17  2  0  0  0
 15 16  1  0  0  0
 15 45  1  0  0  0
 16 18  2  0  0  0
 17 19  1  0  0  0
 17 46  1  0  0  0
 18 20  1  0  0  0
 18 21  1  0  0  0
 19 22  1  0  0  0
 19 21  2  0  0  0
 20 23  2  0  0  0
 20 24  1  0  0  0
 21 47  1  0  0  0
 22 25  2  0  0  0
 22 26  1  0  0  0
 23 27  1  0  0  0
 23 48  1  0  0  0
 24 28  2  0  0  0
 24 49  1  0  0  0
 27 29  2  0  0  0
 27 50  1  0  0  0
 28 29  1  0  0  0
 28 51  1  0  0  0
 29 30  1  0  0  0
 30 31  1  0  0  0
 30 32  1  0  0  0
 30 52  1  0  0  0
 31 33  1  0  0  0
 31 53  1  0  0  0
 31 54  1  0  0  0
 32 34  1  0  0  0
 32 55  1  0  0  0
 32 56  1  0  0  0
 33 35  1  0  0  0
 33 57  1  0  0  0
 33 58  1  0  0  0
 34 35  1  0  0  0
 34 59  1  0  0  0
 34 60  1  0  0  0
 35 36  1  0  0  0
 36 37  2  0  0  0
 36 38  1  0  0  0
 38 61  1  0  0  0
 38 62  1  0  0  0
 38 63  1  0  0  0
M  CHG  1  26  -1
M  END
> <i_epik_Tot_Q>
-1

> <i_epik_Tot_abs_Q>
1

> <i_lp_mmshare_version>
62121

> <i_m_Source_File_Index>
38

> <i_phase_Input_Structure_Number>
56

> <i_phase_Reference_Structure>
116

> <i_phase_Structure_Number>
56

> <Molecule Name>
70

> <Rotatable Bonds>
5

> <i_f3d_flags>
0

> <b_lp_Chiralities_Consistent>
1

> <r_canvas_IC50_human_P2Y14R,_nM>
27.6

> <r_canvas_pIC50>
7.55909091793478

> <r_epik_Charging_Adjusted_Penalty>
0.00143519162298062

> <r_epik_Ionization_Penalty>
  0.0007

> <r_epik_Ionization_Penalty_Charging>
  0.0007

> <r_epik_Ionization_Penalty_Neutral>
  0.0000

> <r_epik_State_Penalty>
  0.0007

> <r_lp_Energy>
58.382177

> <r_phase_Similarity_to_Reference>
0.804012964873066

> <s_canvas_CHEMBLID>
CHEMBL4851241

> <s_canvas_Compound>
8

> <s_canvas_Paper>
Jung2020

> <s_epik_cmdline>
J2VwaWtfcHl0aG9uJywgJy1waCcsICc3LjAnLCAnLXRuJywgJzgnLCAnLW1hJywgJzUwMCcsICctaW1hZScsICc8aW5maWxlLm1hZT4nLCAnLW9tYWUnLCAnPG91dGZpbGUubWFlPic=

> <s_epik_input>
RkMoRikoRiljMVtjSF1bY0hdYyhbY0hdW2NIXTEpLWMoW2NIXTIpW2NIXVtjSF1jKGMyMyljKFtjSF1jKFtjSF0zKUMoPU8pW09IXSktYzRbY0hdW2NIXWMoW2NIXVtjSF00KVtDSF01W0NIMl1bQ0gyXU4oW0NIMl1bQ0gyXTUpQyg9TylbQ0gzXQ==

> <s_lp_Force_Field>
S-OPLS

> <s_lp_Variant>
70-1

> <s_m_Source_File>
database-aligned.sdf

> <s_m_Source_Path>
/data/matteo/P2Y14-antagonists-piperidineDerivatives-Wen2023/14052024-optimized-alignment

> <s_m_entry_id>
38

> <s_m_entry_name>
database-aligned.38

> <s_m_job_name>
align_ligands_1

> <s_phase_Alignment_Method>
snapped core

> <s_phase_Alignment_Reason>


> <s_phase_Core_SMARTS>
a1aaaaa1-a(a2)aaa(a23)a(aaa3)-a4aaa(aa4)A5AA[A]AA5

$$$$
71
                    3D
 Schrodinger Suite 2023-2.
 66 70  0  0  1  0            999 V2000
   -5.0261    1.4324    0.2838 F   0  0  0  0  0  0
   -4.4843    0.5364    1.1094 C   0  0  0  0  0  0
   -4.7261    0.9091    2.3654 F   0  0  0  0  0  0
   -5.0718   -0.6406    0.8904 F   0  0  0  0  0  0
   -2.9805    0.4435    0.8954 C   0  0  0  0  0  0
   -2.2992   -0.7723    1.1122 C   0  0  0  0  0  0
   -2.2454    1.5776    0.4941 C   0  0  0  0  0  0
   -0.9062   -0.8510    0.9207 C   0  0  0  0  0  0
   -0.8521    1.4946    0.3065 C   0  0  0  0  0  0
   -0.1610    0.2796    0.5158 C   0  0  0  0  0  0
    1.3001    0.1930    0.3226 C   0  0  0  0  0  0
    2.1524    1.2383    0.7416 C   0  0  0  0  0  0
    1.8847   -0.9390   -0.2850 C   0  0  0  0  0  0
    3.5501    1.1548    0.5712 C   0  0  0  0  0  0
    3.2777   -1.0307   -0.4622 C   0  0  0  0  0  0
    4.1320    0.0089   -0.0274 C   0  0  0  0  0  0
    4.3632    2.2211    1.0016 C   0  0  0  0  0  0
    5.5422   -0.0679   -0.1843 C   0  0  0  0  0  0
    5.7637    2.1649    0.8405 C   0  0  0  0  0  0
    6.2189   -1.2368   -0.7759 C   0  0  0  0  0  0
    6.3353    1.0178    0.2468 C   0  0  0  0  0  0
    6.6335    3.3065    1.2938 C   0  0  0  0  0  0
    6.9102   -1.1235   -1.9992 C   0  0  0  0  0  0
    6.1956   -2.4906   -0.1313 C   0  0  0  0  0  0
    7.8718    3.2234    1.1339 O   0  0  0  0  0  0
    6.0939    4.3069    1.8173 O   0  5  0  0  0  0
    7.5479   -2.2386   -2.5763 C   0  0  0  0  0  0
    6.8300   -3.6077   -0.7058 C   0  0  0  0  0  0
    7.5223   -3.4998   -1.9335 C   0  0  0  0  0  0
    8.1668   -4.7603   -2.5405 C   0  0  0  0  0  0
    9.1681   -5.4314   -1.5741 C   0  0  0  0  0  0
    9.1677   -4.5137   -3.6951 C   0  0  0  0  0  0
    9.5748   -6.8461   -2.0682 C   0  0  0  0  0  0
    9.5605   -5.8453   -4.3903 C   0  0  0  0  0  0
   10.1128   -6.8814   -3.4645 N   0  0  0  0  0  0
   10.9936   -7.8112   -3.9081 C   0  0  0  0  0  0
   11.3898   -7.8335   -5.0749 O   0  0  0  0  0  0
   11.5158   -8.8738   -2.9240 C   0  0  0  0  0  0
   12.3987   -9.9483   -3.5797 C   0  0  0  0  0  0
   -2.8405   -1.6508    1.4310 H   0  0  0  0  0  0
   -2.7457    2.5208    0.3316 H   0  0  0  0  0  0
   -0.4078   -1.7926    1.0990 H   0  0  0  0  0  0
   -0.3135    2.3774   -0.0059 H   0  0  0  0  0  0
    1.7301    2.1155    1.2104 H   0  0  0  0  0  0
    1.2616   -1.7516   -0.6286 H   0  0  0  0  0  0
    3.6723   -1.9146   -0.9396 H   0  0  0  0  0  0
    3.9023    3.0872    1.4548 H   0  0  0  0  0  0
    7.4069    0.9555    0.1212 H   0  0  0  0  0  0
    6.9447   -0.1713   -2.5085 H   0  0  0  0  0  0
    5.6731   -2.6014    0.8078 H   0  0  0  0  0  0
    8.0543   -2.0970   -3.5177 H   0  0  0  0  0  0
    6.7663   -4.5578   -0.1970 H   0  0  0  0  0  0
    7.3721   -5.4461   -2.8383 H   0  0  0  0  0  0
   10.0470   -4.8130   -1.3822 H   0  0  0  0  0  0
    8.7076   -5.5692   -0.5968 H   0  0  0  0  0  0
    8.6884   -3.9130   -4.4672 H   0  0  0  0  0  0
   10.0486   -3.9470   -3.3878 H   0  0  0  0  0  0
   10.2937   -7.2386   -1.3501 H   0  0  0  0  0  0
    8.7085   -7.5077   -2.0290 H   0  0  0  0  0  0
    8.6846   -6.2719   -4.8810 H   0  0  0  0  0  0
   10.2703   -5.6088   -5.1846 H   0  0  0  0  0  0
   12.0938   -8.3767   -2.1443 H   0  0  0  0  0  0
   10.6687   -9.3609   -2.4395 H   0  0  0  0  0  0
   12.7287  -10.6780   -2.8402 H   0  0  0  0  0  0
   13.2904   -9.5100   -4.0294 H   0  0  0  0  0  0
   11.8585  -10.4899   -4.3568 H   0  0  0  0  0  0
  1  2  1  0  0  0
  2  3  1  0  0  0
  2  4  1  0  0  0
  2  5  1  0  0  0
  5  6  2  0  0  0
  5  7  1  0  0  0
  6  8  1  0  0  0
  6 40  1  0  0  0
  7  9  2  0  0  0
  7 41  1  0  0  0
  8 10  2  0  0  0
  8 42  1  0  0  0
  9 10  1  0  0  0
  9 43  1  0  0  0
 10 11  1  0  0  0
 11 12  2  0  0  0
 11 13  1  0  0  0
 12 14  1  0  0  0
 12 44  1  0  0  0
 13 15  2  0  0  0
 13 45  1  0  0  0
 14 16  1  0  0  0
 14 17  2  0  0  0
 15 16  1  0  0  0
 15 46  1  0  0  0
 16 18  2  0  0  0
 17 19  1  0  0  0
 17 47  1  0  0  0
 18 20  1  0  0  0
 18 21  1  0  0  0
 19 22  1  0  0  0
 19 21  2  0  0  0
 20 23  2  0  0  0
 20 24  1  0  0  0
 21 48  1  0  0  0
 22 25  2  0  0  0
 22 26  1  0  0  0
 23 27  1  0  0  0
 23 49  1  0  0  0
 24 28  2  0  0  0
 24 50  1  0  0  0
 27 29  2  0  0  0
 27 51  1  0  0  0
 28 29  1  0  0  0
 28 52  1  0  0  0
 29 30  1  0  0  0
 30 31  1  0  0  0
 30 32  1  0  0  0
 30 53  1  0  0  0
 31 33  1  0  0  0
 31 54  1  0  0  0
 31 55  1  0  0  0
 32 34  1  0  0  0
 32 56  1  0  0  0
 32 57  1  0  0  0
 33 35  1  0  0  0
 33 58  1  0  0  0
 33 59  1  0  0  0
 34 35  1  0  0  0
 34 60  1  0  0  0
 34 61  1  0  0  0
 35 36  1  0  0  0
 36 37  2  0  0  0
 36 38  1  0  0  0
 38 39  1  0  0  0
 38 62  1  0  0  0
 38 63  1  0  0  0
 39 64  1  0  0  0
 39 65  1  0  0  0
 39 66  1  0  0  0
M  CHG  1  26  -1
M  END
> <i_epik_Tot_Q>
-1

> <i_epik_Tot_abs_Q>
1

> <i_lp_mmshare_version>
62121

> <i_m_Source_File_Index>
39

> <i_phase_Input_Structure_Number>
57

> <i_phase_Reference_Structure>
116

> <i_phase_Structure_Number>
57

> <Molecule Name>
71

> <Rotatable Bonds>
6

> <i_f3d_flags>
0

> <b_lp_Chiralities_Consistent>
1

> <r_canvas_IC50_human_P2Y14R,_nM>
41.8

> <r_canvas_pIC50>
7.37882371822496

> <r_epik_Charging_Adjusted_Penalty>
0.00143519162298062

> <r_epik_Ionization_Penalty>
  0.0007

> <r_epik_Ionization_Penalty_Charging>
  0.0007

> <r_epik_Ionization_Penalty_Neutral>
  0.0000

> <r_epik_State_Penalty>
  0.0007

> <r_lp_Energy>
61.304882

> <r_phase_Similarity_to_Reference>
0.828737163813064

> <s_canvas_CHEMBLID>
CHEMBL4849653

> <s_canvas_Compound>
9

> <s_canvas_Paper>
Jung2020

> <s_epik_cmdline>
J2VwaWtfcHl0aG9uJywgJy1waCcsICc3LjAnLCAnLXRuJywgJzgnLCAnLW1hJywgJzUwMCcsICctaW1hZScsICc8aW5maWxlLm1hZT4nLCAnLW9tYWUnLCAnPG91dGZpbGUubWFlPic=

> <s_epik_input>
RkMoRikoRiljMVtjSF1bY0hdYyhbY0hdW2NIXTEpLWMoW2NIXTIpW2NIXVtjSF1jKGMyMyljKFtjSF1jKFtjSF0zKUMoPU8pW09IXSktYzRbY0hdW2NIXWMoW2NIXVtjSF00KVtDSF01W0NIMl1bQ0gyXU4oW0NIMl1bQ0gyXTUpQyg9TylbQ0gyXVtDSDNd

> <s_lp_Force_Field>
S-OPLS

> <s_lp_Variant>
71-1

> <s_m_Source_File>
database-aligned.sdf

> <s_m_Source_Path>
/data/matteo/P2Y14-antagonists-piperidineDerivatives-Wen2023/14052024-optimized-alignment

> <s_m_entry_id>
39

> <s_m_entry_name>
database-aligned.39

> <s_m_job_name>
align_ligands_1

> <s_phase_Alignment_Method>
snapped core

> <s_phase_Alignment_Reason>


> <s_phase_Core_SMARTS>
a1aaaaa1-a(a2)aaa(a23)a(aaa3)-a4aaa(aa4)A5AA[A]AA5

$$$$
72
                    3D
 Schrodinger Suite 2023-2.
 73 77  0  0  1  0            999 V2000
   -5.0261    1.4324    0.2838 F   0  0  0  0  0  0
   -4.4843    0.5364    1.1094 C   0  0  0  0  0  0
   -4.7261    0.9091    2.3654 F   0  0  0  0  0  0
   -5.0718   -0.6406    0.8904 F   0  0  0  0  0  0
   -2.9805    0.4435    0.8954 C   0  0  0  0  0  0
   -2.2992   -0.7723    1.1122 C   0  0  0  0  0  0
   -2.2454    1.5776    0.4941 C   0  0  0  0  0  0
   -0.9062   -0.8510    0.9207 C   0  0  0  0  0  0
   -0.8521    1.4946    0.3065 C   0  0  0  0  0  0
   -0.1610    0.2796    0.5158 C   0  0  0  0  0  0
    1.3001    0.1930    0.3226 C   0  0  0  0  0  0
    2.1524    1.2383    0.7416 C   0  0  0  0  0  0
    1.8847   -0.9390   -0.2850 C   0  0  0  0  0  0
    3.5501    1.1548    0.5712 C   0  0  0  0  0  0
    3.2777   -1.0307   -0.4622 C   0  0  0  0  0  0
    4.1320    0.0089   -0.0274 C   0  0  0  0  0  0
    4.3632    2.2211    1.0016 C   0  0  0  0  0  0
    5.5422   -0.0679   -0.1843 C   0  0  0  0  0  0
    5.7637    2.1649    0.8405 C   0  0  0  0  0  0
    6.2189   -1.2368   -0.7759 C   0  0  0  0  0  0
    6.3353    1.0178    0.2468 C   0  0  0  0  0  0
    6.6335    3.3065    1.2938 C   0  0  0  0  0  0
    6.9102   -1.1235   -1.9992 C   0  0  0  0  0  0
    6.1956   -2.4906   -0.1313 C   0  0  0  0  0  0
    7.8718    3.2234    1.1339 O   0  0  0  0  0  0
    6.0939    4.3069    1.8173 O   0  5  0  0  0  0
    7.5479   -2.2386   -2.5763 C   0  0  0  0  0  0
    6.8300   -3.6077   -0.7058 C   0  0  0  0  0  0
    7.5223   -3.4998   -1.9335 C   0  0  0  0  0  0
    8.1668   -4.7603   -2.5405 C   0  0  0  0  0  0
    9.1681   -5.4314   -1.5741 C   0  0  0  0  0  0
    9.1677   -4.5137   -3.6951 C   0  0  0  0  0  0
    9.5748   -6.8461   -2.0682 C   0  0  0  0  0  0
    9.5605   -5.8453   -4.3903 C   0  0  0  0  0  0
   10.1128   -6.8814   -3.4645 N   0  0  0  0  0  0
   10.9755   -7.8722   -3.9462 C   0  0  0  0  0  0
   11.4001   -7.9431   -5.1003 O   0  0  0  0  0  0
   11.2736   -8.7622   -2.9611 O   0  0  0  0  0  0
   12.1322   -9.8994   -3.1201 C   0  0  0  0  0  0
   12.1380  -10.5578   -1.7297 C   0  0  0  0  0  0
   13.5728   -9.4740   -3.4784 C   0  0  0  0  0  0
   11.5590  -10.9010   -4.1460 C   0  0  0  0  0  0
   -2.8406   -1.6510    1.4305 H   0  0  0  0  0  0
   -2.7464    2.5203    0.3304 H   0  0  0  0  0  0
   -0.4078   -1.7926    1.0990 H   0  0  0  0  0  0
   -0.3136    2.3773   -0.0066 H   0  0  0  0  0  0
    1.7301    2.1148    1.2115 H   0  0  0  0  0  0
    1.2615   -1.7513   -0.6291 H   0  0  0  0  0  0
    3.6724   -1.9143   -0.9401 H   0  0  0  0  0  0
    3.9028    3.0872    1.4554 H   0  0  0  0  0  0
    7.4070    0.9551    0.1221 H   0  0  0  0  0  0
    6.9448   -0.1712   -2.5084 H   0  0  0  0  0  0
    5.6734   -2.6013    0.8079 H   0  0  0  0  0  0
    8.0540   -2.0970   -3.5178 H   0  0  0  0  0  0
    6.7666   -4.5577   -0.1969 H   0  0  0  0  0  0
    7.3722   -5.4462   -2.8382 H   0  0  0  0  0  0
   10.0468   -4.8129   -1.3820 H   0  0  0  0  0  0
    8.7076   -5.5696   -0.5967 H   0  0  0  0  0  0
    8.6888   -3.9127   -4.4670 H   0  0  0  0  0  0
   10.0487   -3.9472   -3.3873 H   0  0  0  0  0  0
   10.3004   -7.2393   -1.3552 H   0  0  0  0  0  0
    8.7107   -7.5102   -2.0272 H   0  0  0  0  0  0
    8.6853   -6.2717   -4.8825 H   0  0  0  0  0  0
   10.2777   -5.6207   -5.1812 H   0  0  0  0  0  0
   12.7692  -11.4469   -1.7131 H   0  0  0  0  0  0
   11.1343  -10.8618   -1.4302 H   0  0  0  0  0  0
   12.5139   -9.8736   -0.9679 H   0  0  0  0  0  0
   13.9552   -8.7385   -2.7701 H   0  0  0  0  0  0
   13.6417   -9.0396   -4.4752 H   0  0  0  0  0  0
   14.2483  -10.3297   -3.4591 H   0  0  0  0  0  0
   12.1427  -11.8220   -4.1602 H   0  0  0  0  0  0
   11.5673  -10.5061   -5.1615 H   0  0  0  0  0  0
   10.5297  -11.1683   -3.9037 H   0  0  0  0  0  0
  1  2  1  0  0  0
  2  3  1  0  0  0
  2  4  1  0  0  0
  2  5  1  0  0  0
  5  6  2  0  0  0
  5  7  1  0  0  0
  6  8  1  0  0  0
  6 43  1  0  0  0
  7  9  2  0  0  0
  7 44  1  0  0  0
  8 10  2  0  0  0
  8 45  1  0  0  0
  9 10  1  0  0  0
  9 46  1  0  0  0
 10 11  1  0  0  0
 11 12  2  0  0  0
 11 13  1  0  0  0
 12 14  1  0  0  0
 12 47  1  0  0  0
 13 15  2  0  0  0
 13 48  1  0  0  0
 14 16  1  0  0  0
 14 17  2  0  0  0
 15 16  1  0  0  0
 15 49  1  0  0  0
 16 18  2  0  0  0
 17 19  1  0  0  0
 17 50  1  0  0  0
 18 20  1  0  0  0
 18 21  1  0  0  0
 19 22  1  0  0  0
 19 21  2  0  0  0
 20 23  2  0  0  0
 20 24  1  0  0  0
 21 51  1  0  0  0
 22 25  2  0  0  0
 22 26  1  0  0  0
 23 27  1  0  0  0
 23 52  1  0  0  0
 24 28  2  0  0  0
 24 53  1  0  0  0
 27 29  2  0  0  0
 27 54  1  0  0  0
 28 29  1  0  0  0
 28 55  1  0  0  0
 29 30  1  0  0  0
 30 31  1  0  0  0
 30 32  1  0  0  0
 30 56  1  0  0  0
 31 33  1  0  0  0
 31 57  1  0  0  0
 31 58  1  0  0  0
 32 34  1  0  0  0
 32 59  1  0  0  0
 32 60  1  0  0  0
 33 35  1  0  0  0
 33 61  1  0  0  0
 33 62  1  0  0  0
 34 35  1  0  0  0
 34 63  1  0  0  0
 34 64  1  0  0  0
 35 36  1  0  0  0
 36 37  2  0  0  0
 36 38  1  0  0  0
 38 39  1  0  0  0
 39 40  1  0  0  0
 39 41  1  0  0  0
 39 42  1  0  0  0
 40 65  1  0  0  0
 40 66  1  0  0  0
 40 67  1  0  0  0
 41 68  1  0  0  0
 41 69  1  0  0  0
 41 70  1  0  0  0
 42 71  1  0  0  0
 42 72  1  0  0  0
 42 73  1  0  0  0
M  CHG  1  26  -1
M  END
> <i_epik_Tot_Q>
-1

> <i_epik_Tot_abs_Q>
1

> <i_lp_mmshare_version>
62121

> <i_m_Source_File_Index>
40

> <i_phase_Input_Structure_Number>
58

> <i_phase_Reference_Structure>
116

> <i_phase_Structure_Number>
58

> <Molecule Name>
72

> <Rotatable Bonds>
7

> <i_f3d_flags>
0

> <b_lp_Chiralities_Consistent>
1

> <r_canvas_IC50_human_P2Y14R,_nM>
2440

> <r_canvas_pIC50>
5.61261017366127

> <r_epik_Charging_Adjusted_Penalty>
0.00143519162298062

> <r_epik_Ionization_Penalty>
  0.0007

> <r_epik_Ionization_Penalty_Charging>
  0.0007

> <r_epik_Ionization_Penalty_Neutral>
  0.0000

> <r_epik_State_Penalty>
  0.0007

> <r_lp_Energy>
57.256261

> <r_phase_Similarity_to_Reference>
0.854950280886681

> <s_canvas_CHEMBLID>
CHEMBL4848380

> <s_canvas_Compound>
10

> <s_canvas_Paper>
Jung2020

> <s_epik_Chemistry_Notes>
This compound has an ester and may undergo hydrolysis at high or low pH.

> <s_epik_cmdline>
J2VwaWtfcHl0aG9uJywgJy1waCcsICc3LjAnLCAnLXRuJywgJzgnLCAnLW1hJywgJzUwMCcsICctaW1hZScsICc8aW5maWxlLm1hZT4nLCAnLW9tYWUnLCAnPG91dGZpbGUubWFlPic=

> <s_epik_input>
RkMoRikoRiljMVtjSF1bY0hdYyhbY0hdW2NIXTEpLWMoW2NIXTIpW2NIXVtjSF1jKGMyMyljKFtjSF1jKFtjSF0zKUMoPU8pW09IXSktYzRbY0hdW2NIXWMoW2NIXVtjSF00KVtDSF01W0NIMl1bQ0gyXU4oW0NIMl1bQ0gyXTUpQyg9TylPQyhbQ0gzXSkoW0NIM10pW0NIM10=

> <s_lp_Force_Field>
S-OPLS

> <s_lp_Variant>
72-1

> <s_m_Source_File>
database-aligned.sdf

> <s_m_Source_Path>
/data/matteo/P2Y14-antagonists-piperidineDerivatives-Wen2023/14052024-optimized-alignment

> <s_m_entry_id>
40

> <s_m_entry_name>
database-aligned.40

> <s_m_job_name>
align_ligands_1

> <s_phase_Alignment_Method>
snapped core

> <s_phase_Alignment_Reason>


> <s_phase_Core_SMARTS>
a1aaaaa1-a(a2)aaa(a23)a(aaa3)-a4aaa(aa4)A5AA[A]AA5

$$$$
78
                    3D
 Schrodinger Suite 2023-2.
 58 62  0  0  1  0            999 V2000
   -4.8466   -3.4241    1.6134 F   0  0  0  0  0  0
   -5.0120   -2.1173    1.8111 C   0  0  0  0  0  0
   -5.9312   -1.6407    0.9732 F   0  0  0  0  0  0
   -5.3787   -1.8881    3.0709 F   0  0  0  0  0  0
   -3.7102   -1.4192    1.5505 C   0  0  0  0  0  0
   -3.7049   -0.1126    1.0769 C   0  0  0  0  0  0
   -2.5092   -2.0790    1.7828 C   0  0  0  0  0  0
   -2.4987    0.5343    0.8355 C   0  0  0  0  0  0
   -1.3030   -1.4321    1.5414 C   0  0  0  0  0  0
   -1.2977   -0.1255    1.0677 C   0  0  0  0  0  0
    0.0041    0.5726    0.8072 C   0  0  0  0  0  0
    0.0745    1.8131    0.3572 N   0  0  0  0  0  0
    1.2788    0.0570    0.9868 C   0  0  0  0  0  0
    1.4087    2.1505    0.2272 N   0  0  0  0  0  0
    2.1133    1.0787    0.6116 N   0  0  0  0  0  0
    3.5729    1.0430    0.6162 C   0  0  0  0  0  0
    4.3095    2.0826    1.2307 C   0  0  0  0  0  0
    4.2688   -0.0378   -0.0014 C   0  0  0  0  0  0
    5.7140    2.0823    1.2549 C   0  0  0  0  0  0
    5.6959   -0.0428    0.0147 C   0  0  0  0  0  0
    6.4559    3.1572    1.8920 C   0  0  0  0  0  0
    6.3738    1.0063    0.6388 C   0  0  0  0  0  0
    6.4845   -1.1328   -0.6109 C   0  0  0  0  0  0
    7.0466    4.0129    2.3993 N   0  0  0  0  0  0
    6.8196   -1.0713   -1.9653 C   0  0  0  0  0  0
    6.8885   -2.2318    0.1496 C   0  0  0  0  0  0
    7.5469   -2.1010   -2.5562 C   0  0  0  0  0  0
    7.6134   -3.2639   -0.4389 C   0  0  0  0  0  0
    7.9469   -3.2050   -1.7964 C   0  0  0  0  0  0
    8.7323   -4.3448   -2.4511 C   0  0  0  0  0  0
   10.1198   -4.5548   -1.7988 C   0  0  0  0  0  0
    7.9157   -5.6578   -2.4890 C   0  0  0  0  0  0
   10.9018   -5.7110   -2.4500 C   0  0  0  0  0  0
    8.6977   -6.8138   -3.1399 C   0  0  0  0  0  0
   10.0472   -6.9906   -2.4217 N   0  3  0  0  0  0
   -4.6329    0.4100    0.8975 H   0  0  0  0  0  0
   -2.5032   -3.0930    2.1548 H   0  0  0  0  0  0
   -2.5157    1.5501    0.4685 H   0  0  0  0  0  0
   -0.3802   -1.9601    1.7284 H   0  0  0  0  0  0
    1.6385   -0.9005    1.3324 H   0  0  0  0  0  0
    3.7741    2.8977    1.6970 H   0  0  0  0  0  0
    3.7252   -0.8402   -0.4786 H   0  0  0  0  0  0
    7.4548    0.9881    0.6449 H   0  0  0  0  0  0
    6.5105   -0.2244   -2.5609 H   0  0  0  0  0  0
    6.6324   -2.2877    1.1978 H   0  0  0  0  0  0
    7.7938   -2.0398   -3.6061 H   0  0  0  0  0  0
    7.9100   -4.1105    0.1623 H   0  0  0  0  0  0
    8.9139   -4.0562   -3.4877 H   0  0  0  0  0  0
   10.7037   -3.6360   -1.8636 H   0  0  0  0  0  0
   10.0027   -4.7691   -0.7361 H   0  0  0  0  0  0
    7.6378   -5.9485   -1.4752 H   0  0  0  0  0  0
    6.9817   -5.4990   -3.0291 H   0  0  0  0  0  0
   11.1522   -5.4689   -3.4835 H   0  0  0  0  0  0
   11.8385   -5.8878   -1.9212 H   0  0  0  0  0  0
    8.1305   -7.7429   -3.0815 H   0  0  0  0  0  0
    8.8768   -6.6076   -4.1957 H   0  0  0  0  0  0
   10.5605   -7.7387   -2.8657 H   0  0  0  0  0  0
    9.8708   -7.2403   -1.4590 H   0  0  0  0  0  0
  1  2  1  0  0  0
  2  3  1  0  0  0
  2  4  1  0  0  0
  2  5  1  0  0  0
  5  6  2  0  0  0
  5  7  1  0  0  0
  6  8  1  0  0  0
  6 36  1  0  0  0
  7  9  2  0  0  0
  7 37  1  0  0  0
  8 10  2  0  0  0
  8 38  1  0  0  0
  9 10  1  0  0  0
  9 39  1  0  0  0
 10 11  1  0  0  0
 11 12  1  0  0  0
 11 13  2  0  0  0
 12 14  2  0  0  0
 13 15  1  0  0  0
 13 40  1  0  0  0
 14 15  1  0  0  0
 15 16  1  0  0  0
 16 17  2  0  0  0
 16 18  1  0  0  0
 17 19  1  0  0  0
 17 41  1  0  0  0
 18 20  2  0  0  0
 18 42  1  0  0  0
 19 21  1  0  0  0
 19 22  2  0  0  0
 20 23  1  0  0  0
 20 22  1  0  0  0
 21 24  3  0  0  0
 22 43  1  0  0  0
 23 25  2  0  0  0
 23 26  1  0  0  0
 25 27  1  0  0  0
 25 44  1  0  0  0
 26 28  2  0  0  0
 26 45  1  0  0  0
 27 29  2  0  0  0
 27 46  1  0  0  0
 28 29  1  0  0  0
 28 47  1  0  0  0
 29 30  1  0  0  0
 30 31  1  0  0  0
 30 32  1  0  0  0
 30 48  1  0  0  0
 31 33  1  0  0  0
 31 49  1  0  0  0
 31 50  1  0  0  0
 32 34  1  0  0  0
 32 51  1  0  0  0
 32 52  1  0  0  0
 33 35  1  0  0  0
 33 53  1  0  0  0
 33 54  1  0  0  0
 34 35  1  0  0  0
 34 55  1  0  0  0
 34 56  1  0  0  0
 35 57  1  0  0  0
 35 58  1  0  0  0
M  CHG  1  35   1
M  END
> <i_epik_Tot_Q>
1

> <i_epik_Tot_abs_Q>
1

> <i_lp_mmshare_version>
62121

> <i_m_Source_File_Index>
41

> <i_phase_Input_Structure_Number>
59

> <i_phase_Reference_Structure>
41

> <i_phase_Structure_Number>
59

> <Molecule Name>
78

> <Rotatable Bonds>
5

> <i_f3d_flags>
0

> <b_lp_Chiralities_Consistent>
1

> <r_canvas_IC50_human_P2Y14R,_nM>
42100

> <r_canvas_pIC50>
4.37571790416433

> <r_epik_Charging_Adjusted_Penalty>
0.00111148657299637

> <r_epik_Ionization_Penalty>
  0.0006

> <r_epik_Ionization_Penalty_Charging>
  0.0006

> <r_epik_Ionization_Penalty_Neutral>
  0.0000

> <r_epik_State_Penalty>
  0.0006

> <r_lp_Energy>
53.59259

> <r_lp_tautomer_probability>
1

> <r_phase_Similarity_to_Reference>
0.953832494946621

> <s_canvas_CHEMBLID>
CHEMBL4646514

> <s_canvas_Compound>
16

> <s_canvas_Paper>
Jung2020

> <s_epik_cmdline>
J2VwaWtfcHl0aG9uJywgJy1waCcsICc3LjAnLCAnLXRuJywgJzgnLCAnLW1hJywgJzUwMCcsICctaW1hZScsICc8aW5maWxlLm1hZT4nLCAnLW9tYWUnLCAnPG91dGZpbGUubWFlPic=

> <s_epik_input>
RkMoRikoRiljMVtjSF1bY0hdYyhbY0hdW2NIXTEpLWMybm5uKFtjSF0yKS1jM1tjSF1jKEMjTilbY0hdYyhbY0hdMyktYzRbY0hdW2NIXWMoW2NIXVtjSF00KVtDSF01W0NIMl1bQ0gyXVtOSF1bQ0gyXVtDSDJdNQ==

> <s_lp_Force_Field>
S-OPLS

> <s_lp_Variant>
78-1

> <s_m_Source_File>
database-aligned.sdf

> <s_m_Source_Path>
/data/matteo/P2Y14-antagonists-piperidineDerivatives-Wen2023/14052024-optimized-alignment

> <s_m_entry_id>
41

> <s_m_entry_name>
database-aligned.41

> <s_m_job_name>
align_ligands_1

> <s_phase_Alignment_Method>
snapped core

> <s_phase_Alignment_Reason>


> <s_phase_Core_SMARTS>
a1aaaaa1-a2aa(aa2)-a3aaaa(a3)-a4aaa(aa4)A5AA[A]AA5

$$$$
79
                    3D
 Schrodinger Suite 2023-2.
 63 68  0  0  1  0            999 V2000
   -4.7497    0.8794    2.0131 F   0  0  0  0  0  0
   -4.4362    0.1906    0.9163 C   0  0  0  0  0  0
   -4.9554   -1.0334    1.0189 F   0  0  0  0  0  0
   -4.9839    0.7921   -0.1398 F   0  0  0  0  0  0
   -2.9232    0.1543    0.7601 C   0  0  0  0  0  0
   -2.1978   -1.0448    0.9229 C   0  0  0  0  0  0
   -2.2251    1.3397    0.4544 C   0  0  0  0  0  0
   -0.7972   -1.0543    0.7730 C   0  0  0  0  0  0
   -0.8247    1.3249    0.3071 C   0  0  0  0  0  0
   -0.0877    0.1285    0.4625 C   0  0  0  0  0  0
    1.3813    0.1129    0.3033 C   0  0  0  0  0  0
    2.1803    1.1924    0.7239 C   0  0  0  0  0  0
    2.0387   -0.9670   -0.3132 C   0  0  0  0  0  0
    3.5819    1.1709    0.5640 C   0  0  0  0  0  0
    3.4381   -0.9770   -0.4649 C   0  0  0  0  0  0
    4.2776    0.0604    0.0373 C   0  0  0  0  0  0
    4.3083    2.3255    0.9329 C   0  0  0  0  0  0
    5.6806    0.0815   -0.1254 C   0  0  0  0  0  0
    5.7116    2.3738    0.7806 C   0  0  0  0  0  0
    6.3974   -1.0891   -0.6718 C   0  0  0  0  0  0
    6.3823    1.2483    0.2510 C   0  0  0  0  0  0
    6.4810    3.6070    1.1721 C   0  0  0  0  0  0
    6.0147   -2.4031   -0.3240 C   0  0  0  0  0  0
    7.4888   -0.9298   -1.5533 C   0  0  0  0  0  0
    7.7228    3.6194    1.0173 O   0  0  0  0  0  0
    5.8579    4.5861    1.6401 O   0  5  0  0  0  0
    6.7002   -3.5222   -0.8343 C   0  0  0  0  0  0
    8.1769   -2.0456   -2.0664 C   0  0  0  0  0  0
    7.7964   -3.3603   -1.7144 C   0  0  0  0  0  0
    8.5765   -4.5570   -2.2847 C   0  0  0  0  0  0
    8.5280   -4.5730   -3.8371 C   0  0  0  0  0  0
   10.0722   -4.4972   -1.8701 C   0  0  0  0  0  0
    8.0424   -5.9414   -1.8133 C   0  0  0  0  0  0
    9.3605   -5.7543   -4.4002 C   0  0  0  0  0  0
   10.8592   -5.6873   -2.4771 C   0  0  0  0  0  0
    8.8745   -7.0953   -2.4278 C   0  0  0  0  0  0
    9.9514   -6.5411   -3.2865 N   0  3  0  0  0  0
   -2.7113   -1.9635    1.1650 H   0  0  0  0  0  0
   -2.7603    2.2696    0.3305 H   0  0  0  0  0  0
   -0.2663   -1.9854    0.9073 H   0  0  0  0  0  0
   -0.3184    2.2473    0.0633 H   0  0  0  0  0  0
    1.7142    2.0601    1.1680 H   0  0  0  0  0  0
    1.4667   -1.7936   -0.7085 H   0  0  0  0  0  0
    3.8142   -1.8064   -1.0365 H   0  0  0  0  0  0
    3.7781    3.1780    1.3332 H   0  0  0  0  0  0
    7.4565    1.2716    0.1387 H   0  0  0  0  0  0
    5.2305   -2.5828    0.3958 H   0  0  0  0  0  0
    7.8069    0.0597   -1.8478 H   0  0  0  0  0  0
    6.3691   -4.4982   -0.5162 H   0  0  0  0  0  0
    9.0072   -1.8771   -2.7355 H   0  0  0  0  0  0
    7.4950   -4.6506   -4.1792 H   0  0  0  0  0  0
    8.9137   -3.6403   -4.2493 H   0  0  0  0  0  0
   10.5303   -3.5643   -2.1998 H   0  0  0  0  0  0
   10.1612   -4.5100   -0.7829 H   0  0  0  0  0  0
    8.0819   -6.0158   -0.7256 H   0  0  0  0  0  0
    6.9966   -6.0654   -2.0983 H   0  0  0  0  0  0
    8.7353   -6.4024   -5.0158 H   0  0  0  0  0  0
   10.1568   -5.3853   -5.0480 H   0  0  0  0  0  0
   11.6748   -5.3251   -3.1043 H   0  0  0  0  0  0
   11.3170   -6.2848   -1.6876 H   0  0  0  0  0  0
    9.3130   -7.7116   -1.6419 H   0  0  0  0  0  0
    8.2371   -7.7538   -3.0194 H   0  0  0  0  0  0
   10.4844   -7.3062   -3.6751 H   0  0  0  0  0  0
  1  2  1  0  0  0
  2  3  1  0  0  0
  2  4  1  0  0  0
  2  5  1  0  0  0
  5  6  2  0  0  0
  5  7  1  0  0  0
  6  8  1  0  0  0
  6 38  1  0  0  0
  7  9  2  0  0  0
  7 39  1  0  0  0
  8 10  2  0  0  0
  8 40  1  0  0  0
  9 10  1  0  0  0
  9 41  1  0  0  0
 10 11  1  0  0  0
 11 12  2  0  0  0
 11 13  1  0  0  0
 12 14  1  0  0  0
 12 42  1  0  0  0
 13 15  2  0  0  0
 13 43  1  0  0  0
 14 16  1  0  0  0
 14 17  2  0  0  0
 15 16  1  0  0  0
 15 44  1  0  0  0
 16 18  2  0  0  0
 17 19  1  0  0  0
 17 45  1  0  0  0
 18 20  1  0  0  0
 18 21  1  0  0  0
 19 22  1  0  0  0
 19 21  2  0  0  0
 20 23  2  0  0  0
 20 24  1  0  0  0
 21 46  1  0  0  0
 22 25  2  0  0  0
 22 26  1  0  0  0
 23 27  1  0  0  0
 23 47  1  0  0  0
 24 28  2  0  0  0
 24 48  1  0  0  0
 27 29  2  0  0  0
 27 49  1  0  0  0
 28 29  1  0  0  0
 28 50  1  0  0  0
 29 30  1  0  0  0
 30 31  1  0  0  0
 30 32  1  0  0  0
 30 33  1  0  0  0
 31 34  1  0  0  0
 31 51  1  0  0  0
 31 52  1  0  0  0
 32 35  1  0  0  0
 32 53  1  0  0  0
 32 54  1  0  0  0
 33 36  1  0  0  0
 33 55  1  0  0  0
 33 56  1  0  0  0
 34 37  1  0  0  0
 34 57  1  0  0  0
 34 58  1  0  0  0
 35 37  1  0  0  0
 35 59  1  0  0  0
 35 60  1  0  0  0
 36 37  1  0  0  0
 36 61  1  0  0  0
 36 62  1  0  0  0
 37 63  1  0  0  0
M  CHG  2  26  -1  37   1
M  END
> <i_epik_Tot_Q>
0

> <i_epik_Tot_abs_Q>
2

> <i_lp_mmshare_version>
62121

> <i_m_Source_File_Index>
42

> <i_phase_Input_Structure_Number>
60

> <i_phase_Reference_Structure>
64

> <i_phase_Structure_Number>
60

> <Molecule Name>
79

> <Rotatable Bonds>
5

> <i_f3d_flags>
0

> <b_lp_Chiralities_Consistent>
1

> <r_canvas_IC50_human_P2Y14R,_nM>
20

> <r_canvas_pIC50>
7.69897000433602

> <r_epik_Charging_Adjusted_Penalty>
0.00174396050230023

> <r_epik_Ionization_Penalty>
  0.0017

> <r_epik_Ionization_Penalty_Charging>
  0.0017

> <r_epik_Ionization_Penalty_Neutral>
  0.0000

> <r_epik_State_Penalty>
  0.0000

> <r_lp_Energy>
86.899839

> <r_lp_tautomer_probability>
1

> <r_phase_Similarity_to_Reference>
0.973309861704178

> <s_canvas_CHEMBLID>
CHEMBL4645987

> <s_canvas_Compound>
17

> <s_canvas_Paper>
Jung2020

> <s_epik_cmdline>
J2VwaWtfcHl0aG9uJywgJy1waCcsICc3LjAnLCAnLXRuJywgJzgnLCAnLW1hJywgJzUwMCcsICctaW1hZScsICc8aW5maWxlLm1hZT4nLCAnLW9tYWUnLCAnPG91dGZpbGUubWFlPic=

> <s_epik_input>
RkMoRikoRiljMVtjSF1bY0hdYyhbY0hdW2NIXTEpLWMoW2NIXTIpW2NIXVtjSF1jKGMyMyljKFtjSF1jKFtjSF0zKUMoPU8pW09IXSktYzRbY0hdW2NIXWMoW2NIXVtjSF00KUM1NltDSDJdW0NIMl1OKFtDSDJdW0NIMl01KVtDSDJdW0NIMl02

> <s_lp_Force_Field>
S-OPLS

> <s_lp_Variant>
79-1

> <s_m_Source_File>
database-aligned.sdf

> <s_m_Source_Path>
/data/matteo/P2Y14-antagonists-piperidineDerivatives-Wen2023/14052024-optimized-alignment

> <s_m_entry_id>
42

> <s_m_entry_name>
database-aligned.42

> <s_m_job_name>
align_ligands_1

> <s_phase_Alignment_Method>
snapped core

> <s_phase_Alignment_Reason>


> <s_phase_Core_SMARTS>
a1aaaaa1-a(a2)aaa(a23)a(aaa3)-a4aaa(aa4)A56AA[A](AA5)AA6

$$$$
80
                    3D
 Schrodinger Suite 2023-2.
 63 68  0  0  1  0            999 V2000
   -5.8961   -1.7542    0.6196 F   0  0  0  0  0  0
   -5.0145   -2.2708    1.4757 C   0  0  0  0  0  0
   -5.4726   -2.1050    2.7160 F   0  0  0  0  0  0
   -4.9091   -3.5777    1.2319 F   0  0  0  0  0  0
   -3.6776   -1.5583    1.3341 C   0  0  0  0  0  0
   -2.4720   -2.2824    1.2136 C   0  0  0  0  0  0
   -3.6347   -0.1489    1.3336 C   0  0  0  0  0  0
   -1.2442   -1.6043    1.0864 C   0  0  0  0  0  0
   -2.4066    0.5285    1.2066 C   0  0  0  0  0  0
   -1.1972   -0.1925    1.0801 C   0  0  0  0  0  0
    0.0911    0.5012    0.9452 C   0  0  0  0  0  0
    0.1941    1.8938    0.9699 N   0  0  0  0  0  0
    1.3554    0.0012    0.7850 C   0  0  0  0  0  0
    1.4325    2.2469    0.8384 N   0  0  0  0  0  0
    2.1712    1.1164    0.7204 N   0  0  0  0  0  0
    3.5819    1.1709    0.5640 C   0  0  0  0  0  0
    4.2776    0.0604    0.0373 C   0  0  0  0  0  0
    4.3083    2.3255    0.9329 C   0  0  0  0  0  0
    5.6806    0.0815   -0.1254 C   0  0  0  0  0  0
    5.7116    2.3738    0.7806 C   0  0  0  0  0  0
    6.3974   -1.0891   -0.6718 C   0  0  0  0  0  0
    6.3823    1.2483    0.2510 C   0  0  0  0  0  0
    6.4815    3.6038    1.1805 C   0  0  0  0  0  0
    7.4888   -0.9298   -1.5533 C   0  0  0  0  0  0
    6.0147   -2.4031   -0.3240 C   0  0  0  0  0  0
    7.7227    3.6180    1.0222 O   0  0  0  0  0  0
    5.8590    4.5776    1.6603 O   0  5  0  0  0  0
    8.1769   -2.0456   -2.0664 C   0  0  0  0  0  0
    6.7002   -3.5222   -0.8343 C   0  0  0  0  0  0
    7.7964   -3.3603   -1.7144 C   0  0  0  0  0  0
    8.5765   -4.5570   -2.2847 C   0  0  0  0  0  0
    8.0424   -5.9414   -1.8133 C   0  0  0  0  0  0
    8.5280   -4.5730   -3.8371 C   0  0  0  0  0  0
   10.0722   -4.4972   -1.8701 C   0  0  0  0  0  0
    8.8745   -7.0953   -2.4278 C   0  0  0  0  0  0
    9.3605   -5.7543   -4.4002 C   0  0  0  0  0  0
   10.8592   -5.6873   -2.4771 C   0  0  0  0  0  0
    9.9514   -6.5411   -3.2865 N   0  3  0  0  0  0
   -2.4774   -3.3621    1.2183 H   0  0  0  0  0  0
   -4.5486    0.4184    1.4319 H   0  0  0  0  0  0
   -0.3368   -2.1823    0.9952 H   0  0  0  0  0  0
   -2.4069    1.6087    1.2082 H   0  0  0  0  0  0
    1.7241   -1.0115    0.7219 H   0  0  0  0  0  0
    3.7309   -0.8209   -0.2620 H   0  0  0  0  0  0
    3.7887    3.1791    1.3435 H   0  0  0  0  0  0
    7.4566    1.2722    0.1393 H   0  0  0  0  0  0
    7.8069    0.0595   -1.8484 H   0  0  0  0  0  0
    5.1893   -2.5642    0.3538 H   0  0  0  0  0  0
    9.0070   -1.8773   -2.7360 H   0  0  0  0  0  0
    6.3614   -4.4986   -0.5256 H   0  0  0  0  0  0
    8.0811   -6.0159   -0.7255 H   0  0  0  0  0  0
    6.9967   -6.0656   -2.0986 H   0  0  0  0  0  0
    7.4952   -4.6500   -4.1801 H   0  0  0  0  0  0
    8.9141   -3.6405   -4.2496 H   0  0  0  0  0  0
   10.5301   -3.5647   -2.2011 H   0  0  0  0  0  0
   10.1621   -4.5089   -0.7829 H   0  0  0  0  0  0
    9.3130   -7.7112   -1.6415 H   0  0  0  0  0  0
    8.2371   -7.7545   -3.0188 H   0  0  0  0  0  0
    8.7359   -6.4029   -5.0159 H   0  0  0  0  0  0
   10.1572   -5.3856   -5.0477 H   0  0  0  0  0  0
   11.6755   -5.3256   -3.1037 H   0  0  0  0  0  0
   11.3163   -6.2849   -1.6871 H   0  0  0  0  0  0
   10.4845   -7.3064   -3.6748 H   0  0  0  0  0  0
  1  2  1  0  0  0
  2  3  1  0  0  0
  2  4  1  0  0  0
  2  5  1  0  0  0
  5  6  2  0  0  0
  5  7  1  0  0  0
  6  8  1  0  0  0
  6 39  1  0  0  0
  7  9  2  0  0  0
  7 40  1  0  0  0
  8 10  2  0  0  0
  8 41  1  0  0  0
  9 10  1  0  0  0
  9 42  1  0  0  0
 10 11  1  0  0  0
 11 12  1  0  0  0
 11 13  2  0  0  0
 12 14  2  0  0  0
 13 15  1  0  0  0
 13 43  1  0  0  0
 14 15  1  0  0  0
 15 16  1  0  0  0
 16 17  2  0  0  0
 16 18  1  0  0  0
 17 19  1  0  0  0
 17 44  1  0  0  0
 18 20  2  0  0  0
 18 45  1  0  0  0
 19 21  1  0  0  0
 19 22  2  0  0  0
 20 23  1  0  0  0
 20 22  1  0  0  0
 21 24  2  0  0  0
 21 25  1  0  0  0
 22 46  1  0  0  0
 23 26  2  0  0  0
 23 27  1  0  0  0
 24 28  1  0  0  0
 24 47  1  0  0  0
 25 29  2  0  0  0
 25 48  1  0  0  0
 28 30  2  0  0  0
 28 49  1  0  0  0
 29 30  1  0  0  0
 29 50  1  0  0  0
 30 31  1  0  0  0
 31 32  1  0  0  0
 31 33  1  0  0  0
 31 34  1  0  0  0
 32 35  1  0  0  0
 32 51  1  0  0  0
 32 52  1  0  0  0
 33 36  1  0  0  0
 33 53  1  0  0  0
 33 54  1  0  0  0
 34 37  1  0  0  0
 34 55  1  0  0  0
 34 56  1  0  0  0
 35 38  1  0  0  0
 35 57  1  0  0  0
 35 58  1  0  0  0
 36 38  1  0  0  0
 36 59  1  0  0  0
 36 60  1  0  0  0
 37 38  1  0  0  0
 37 61  1  0  0  0
 37 62  1  0  0  0
 38 63  1  0  0  0
M  CHG  2  27  -1  38   1
M  END
> <i_epik_Tot_Q>
0

> <i_epik_Tot_abs_Q>
2

> <i_lp_mmshare_version>
62121

> <i_m_Source_File_Index>
43

> <i_phase_Input_Structure_Number>
61

> <i_phase_Reference_Structure>
41

> <i_phase_Structure_Number>
61

> <Molecule Name>
80

> <Rotatable Bonds>
6

> <i_f3d_flags>
0

> <b_lp_Chiralities_Consistent>
1

> <r_canvas_IC50_human_P2Y14R,_nM>
105

> <r_canvas_pIC50>
6.97881070093006

> <r_epik_Charging_Adjusted_Penalty>
0.00225553668503759

> <r_epik_Ionization_Penalty>
  0.0012

> <r_epik_Ionization_Penalty_Charging>
  0.0012

> <r_epik_Ionization_Penalty_Neutral>
  0.0000

> <r_epik_State_Penalty>
  0.0010

> <r_lp_Energy>
77.883438

> <r_lp_tautomer_probability>
1

> <r_phase_Similarity_to_Reference>
0.823187831823628

> <s_canvas_CHEMBLID>
CHEMBL4645854

> <s_canvas_Compound>
18

> <s_canvas_Paper>
Jung2020

> <s_epik_cmdline>
J2VwaWtfcHl0aG9uJywgJy1waCcsICc3LjAnLCAnLXRuJywgJzgnLCAnLW1hJywgJzUwMCcsICctaW1hZScsICc8aW5maWxlLm1hZT4nLCAnLW9tYWUnLCAnPG91dGZpbGUubWFlPic=

> <s_epik_input>
RkMoRikoRiljMVtjSF1bY0hdYyhbY0hdW2NIXTEpLWMybm5uKFtjSF0yKS1jM1tjSF1jKFtjSF1jKFtjSF0zKUMoPU8pW09IXSktYzRbY0hdW2NIXWMoW2NIXVtjSF00KUM1NltDSDJdW0NIMl1OKFtDSDJdW0NIMl01KVtDSDJdW0NIMl02

> <s_lp_Force_Field>
S-OPLS

> <s_lp_Variant>
80-1

> <s_m_Source_File>
database-aligned.sdf

> <s_m_Source_Path>
/data/matteo/P2Y14-antagonists-piperidineDerivatives-Wen2023/14052024-optimized-alignment

> <s_m_entry_id>
43

> <s_m_entry_name>
database-aligned.43

> <s_m_job_name>
align_ligands_1

> <s_phase_Alignment_Method>
flexible least-squares core

> <s_phase_Alignment_Reason>
distorted bond in snapped structure

> <s_phase_Core_SMARTS>
a1aaaaa1-a2aa(aa2)-a3aaaa(a3)-a4aaa(aa4)A5AA[A]AA5

$$$$
81
                    3D
 Schrodinger Suite 2023-2.
 60 65  0  0  1  0            999 V2000
   -4.8466   -3.4241    1.6134 F   0  0  0  0  0  0
   -5.0120   -2.1173    1.8111 C   0  0  0  0  0  0
   -5.9312   -1.6407    0.9732 F   0  0  0  0  0  0
   -5.3787   -1.8881    3.0709 F   0  0  0  0  0  0
   -3.7102   -1.4192    1.5505 C   0  0  0  0  0  0
   -3.7049   -0.1126    1.0769 C   0  0  0  0  0  0
   -2.5092   -2.0790    1.7828 C   0  0  0  0  0  0
   -2.4987    0.5343    0.8355 C   0  0  0  0  0  0
   -1.3030   -1.4321    1.5414 C   0  0  0  0  0  0
   -1.2977   -0.1255    1.0677 C   0  0  0  0  0  0
    0.0041    0.5726    0.8072 C   0  0  0  0  0  0
    0.0745    1.8131    0.3572 N   0  0  0  0  0  0
    1.2788    0.0570    0.9868 C   0  0  0  0  0  0
    1.4087    2.1505    0.2272 N   0  0  0  0  0  0
    2.1133    1.0787    0.6116 N   0  0  0  0  0  0
    3.5729    1.0430    0.6162 C   0  0  0  0  0  0
    4.2688   -0.0378   -0.0014 C   0  0  0  0  0  0
    4.3095    2.0826    1.2307 C   0  0  0  0  0  0
    5.6959   -0.0428    0.0147 C   0  0  0  0  0  0
    5.7140    2.0823    1.2549 C   0  0  0  0  0  0
    6.4845   -1.1328   -0.6109 C   0  0  0  0  0  0
    6.3738    1.0063    0.6388 C   0  0  0  0  0  0
    6.4824    3.1926    1.9177 C   0  0  0  0  0  0
    6.8885   -2.2318    0.1496 C   0  0  0  0  0  0
    6.8196   -1.0713   -1.9653 C   0  0  0  0  0  0
    7.7329    3.1460    1.9172 O   0  0  0  0  0  0
    5.8483    4.1301    2.4513 O   0  5  0  0  0  0
    7.6134   -3.2639   -0.4389 C   0  0  0  0  0  0
    7.5469   -2.1010   -2.5562 C   0  0  0  0  0  0
    7.9469   -3.2050   -1.7964 C   0  0  0  0  0  0
    8.7323   -4.3448   -2.4511 C   0  0  2  0  0  0
    7.9157   -5.6578   -2.4890 C   0  0  1  0  0  0
   10.1198   -4.5548   -1.7988 C   0  0  0  0  0  0
    8.0226   -4.7249   -3.7151 C   0  0  0  0  0  0
    8.6977   -6.8138   -3.1399 C   0  0  0  0  0  0
   10.9018   -5.7110   -2.4500 C   0  0  0  0  0  0
   10.0472   -6.9906   -2.4217 N   0  3  0  0  0  0
   -4.6329    0.4101    0.8976 H   0  0  0  0  0  0
   -2.5031   -3.0929    2.1549 H   0  0  0  0  0  0
   -2.5154    1.5501    0.4687 H   0  0  0  0  0  0
   -0.3800   -1.9599    1.7285 H   0  0  0  0  0  0
    1.6399   -0.9000    1.3331 H   0  0  0  0  0  0
    3.7253   -0.8401   -0.4786 H   0  0  0  0  0  0
    3.7662    2.8934    1.6946 H   0  0  0  0  0  0
    7.4543    0.9794    0.6398 H   0  0  0  0  0  0
    6.6324   -2.2868    1.1978 H   0  0  0  0  0  0
    6.5138   -0.2222   -2.5593 H   0  0  0  0  0  0
    7.9086   -4.1122    0.1607 H   0  0  0  0  0  0
    7.8041   -2.0281   -3.6028 H   0  0  0  0  0  0
    6.9327   -5.7945   -2.0421 H   0  0  0  0  0  0
   10.6927   -3.6305   -1.8797 H   0  0  0  0  0  0
    9.9934   -4.7566   -0.7348 H   0  0  0  0  0  0
    7.0860   -4.2460   -3.9949 H   0  0  0  0  0  0
    8.7139   -4.8265   -4.5516 H   0  0  0  0  0  0
    8.1317   -7.7247   -2.9450 H   0  0  0  0  0  0
    8.8255   -6.8163   -4.2241 H   0  0  0  0  0  0
   11.1510   -5.4691   -3.4838 H   0  0  0  0  0  0
   11.8388   -5.8873   -1.9217 H   0  0  0  0  0  0
    9.8681   -7.2326   -1.4576 H   0  0  0  0  0  0
   10.5588   -7.7438   -2.8588 H   0  0  0  0  0  0
  1  2  1  0  0  0
  2  3  1  0  0  0
  2  4  1  0  0  0
  2  5  1  0  0  0
  5  6  2  0  0  0
  5  7  1  0  0  0
  6  8  1  0  0  0
  6 38  1  0  0  0
  7  9  2  0  0  0
  7 39  1  0  0  0
  8 10  2  0  0  0
  8 40  1  0  0  0
  9 10  1  0  0  0
  9 41  1  0  0  0
 10 11  1  0  0  0
 11 12  1  0  0  0
 11 13  2  0  0  0
 12 14  2  0  0  0
 13 15  1  0  0  0
 13 42  1  0  0  0
 14 15  1  0  0  0
 15 16  1  0  0  0
 16 17  2  0  0  0
 16 18  1  0  0  0
 17 19  1  0  0  0
 17 43  1  0  0  0
 18 20  2  0  0  0
 18 44  1  0  0  0
 19 21  1  0  0  0
 19 22  2  0  0  0
 20 23  1  0  0  0
 20 22  1  0  0  0
 21 24  2  0  0  0
 21 25  1  0  0  0
 22 45  1  0  0  0
 23 26  2  0  0  0
 23 27  1  0  0  0
 24 28  1  0  0  0
 24 46  1  0  0  0
 25 29  2  0  0  0
 25 47  1  0  0  0
 28 30  2  0  0  0
 28 48  1  0  0  0
 29 30  1  0  0  0
 29 49  1  0  0  0
 30 31  1  0  0  0
 31 32  1  0  0  0
 31 33  1  0  0  0
 31 34  1  0  0  0
 32 35  1  0  0  0
 32 34  1  0  0  0
 32 50  1  0  0  0
 33 36  1  0  0  0
 33 51  1  0  0  0
 33 52  1  0  0  0
 34 53  1  0  0  0
 34 54  1  0  0  0
 35 37  1  0  0  0
 35 55  1  0  0  0
 35 56  1  0  0  0
 36 37  1  0  0  0
 36 57  1  0  0  0
 36 58  1  0  0  0
 37 59  1  0  0  0
 37 60  1  0  0  0
M  CHG  2  27  -1  37   1
M  END
> <i_epik_Tot_Q>
0

> <i_epik_Tot_abs_Q>
2

> <i_lp_mmshare_version>
62121

> <i_m_Source_File_Index>
44

> <i_phase_Input_Structure_Number>
62

> <i_phase_Reference_Structure>
63

> <i_phase_Structure_Number>
62

> <Molecule Name>
81

> <Rotatable Bonds>
6

> <i_f3d_flags>
0

> <b_lp_Chiralities_Consistent>
1

> <r_canvas_IC50_human_P2Y14R,_nM>
359

> <r_canvas_pIC50>
6.44490555142168

> <r_epik_Charging_Adjusted_Penalty>
0.00122202447434959

> <r_epik_Ionization_Penalty>
  0.0007

> <r_epik_Ionization_Penalty_Charging>
  0.0007

> <r_epik_Ionization_Penalty_Neutral>
  0.0000

> <r_epik_State_Penalty>
  0.0005

> <r_lp_Energy>
66.76388

> <r_lp_tautomer_probability>
1

> <r_phase_Similarity_to_Reference>
0.982634913282502

> <s_canvas_CHEMBLID>
CHEMBL4645216

> <s_canvas_Compound>
19

> <s_canvas_Paper>
Jung2020

> <s_epik_cmdline>
J2VwaWtfcHl0aG9uJywgJy1waCcsICc3LjAnLCAnLXRuJywgJzgnLCAnLW1hJywgJzUwMCcsICctaW1hZScsICc8aW5maWxlLm1hZT4nLCAnLW9tYWUnLCAnPG91dGZpbGUubWFlPic=

> <s_epik_input>
RkMoRikoRiljMVtjSF1bY0hdYyhbY0hdW2NIXTEpLWMybm5uKFtjSF0yKS1jM1tjSF1jKFtjSF1jKFtjSF0zKUMoPU8pW09IXSktYzRbY0hdW2NIXWMoW2NIXVtjSF00KVtDQF01NltDQEBIXShbQ0gyXTYpW0NIMl1bTkhdW0NIMl1bQ0gyXTU=

> <s_lp_Force_Field>
S-OPLS

> <s_lp_Variant>
81-1

> <s_m_Source_File>
database-aligned.sdf

> <s_m_Source_Path>
/data/matteo/P2Y14-antagonists-piperidineDerivatives-Wen2023/14052024-optimized-alignment

> <s_m_entry_id>
44

> <s_m_entry_name>
database-aligned.44

> <s_m_job_name>
align_ligands_1

> <s_phase_Alignment_Method>
snapped core

> <s_phase_Alignment_Reason>


> <s_phase_Core_SMARTS>
A1A[A]AA(A2)A12a3aaa(aa3)-a4aa(aaa4)-a5aaa(a5)-a6aaaaa6

$$$$
82
                    3D
 Schrodinger Suite 2023-2.
 60 65  0  0  1  0            999 V2000
    6.8137   -4.1697   -4.1012 F   0  0  0  0  0  0
    8.0226   -4.7249   -3.7151 C   0  0  0  0  0  0
    8.9072   -4.8234   -4.7816 F   0  0  0  0  0  0
    8.7323   -4.3448   -2.4511 C   0  0  2  0  0  0
    7.9157   -5.6578   -2.4890 C   0  0  2  0  0  0
    7.9469   -3.2050   -1.7964 C   0  0  0  0  0  0
   10.1198   -4.5548   -1.7988 C   0  0  0  0  0  0
    8.6977   -6.8138   -3.1399 C   0  0  0  0  0  0
    7.5469   -2.1010   -2.5562 C   0  0  0  0  0  0
    7.6134   -3.2639   -0.4389 C   0  0  0  0  0  0
   10.9018   -5.7110   -2.4500 C   0  0  0  0  0  0
   10.0472   -6.9906   -2.4217 N   0  3  0  0  0  0
    6.8196   -1.0713   -1.9653 C   0  0  0  0  0  0
    6.8885   -2.2318    0.1496 C   0  0  0  0  0  0
    6.4845   -1.1328   -0.6109 C   0  0  0  0  0  0
    5.6959   -0.0428    0.0147 C   0  0  0  0  0  0
    4.2688   -0.0378   -0.0014 C   0  0  0  0  0  0
    6.3738    1.0063    0.6388 C   0  0  0  0  0  0
    3.5729    1.0430    0.6162 C   0  0  0  0  0  0
    5.7140    2.0823    1.2549 C   0  0  0  0  0  0
    2.1133    1.0787    0.6116 N   0  0  0  0  0  0
    4.3095    2.0826    1.2307 C   0  0  0  0  0  0
    6.4824    3.1926    1.9177 C   0  0  0  0  0  0
    1.4087    2.1505    0.2272 N   0  0  0  0  0  0
    1.2788    0.0570    0.9868 C   0  0  0  0  0  0
    7.7329    3.1460    1.9172 O   0  0  0  0  0  0
    5.8483    4.1301    2.4513 O   0  5  0  0  0  0
    0.0745    1.8131    0.3572 N   0  0  0  0  0  0
    0.0041    0.5726    0.8072 C   0  0  0  0  0  0
   -1.2977   -0.1255    1.0677 C   0  0  0  0  0  0
   -2.4987    0.5343    0.8355 C   0  0  0  0  0  0
   -1.3030   -1.4321    1.5414 C   0  0  0  0  0  0
   -3.7049   -0.1126    1.0769 C   0  0  0  0  0  0
   -2.5092   -2.0790    1.7828 C   0  0  0  0  0  0
   -3.7102   -1.4192    1.5505 C   0  0  0  0  0  0
   -5.0120   -2.1173    1.8111 C   0  0  0  0  0  0
   -4.8466   -3.4241    1.6134 F   0  0  0  0  0  0
   -5.9312   -1.6407    0.9732 F   0  0  0  0  0  0
   -5.3787   -1.8881    3.0709 F   0  0  0  0  0  0
    6.9341   -5.7929   -2.0384 H   0  0  0  0  0  0
   10.6928   -3.6308   -1.8815 H   0  0  0  0  0  0
    9.9944   -4.7551   -0.7344 H   0  0  0  0  0  0
    8.1392   -7.7171   -2.8944 H   0  0  0  0  0  0
    8.7703   -6.8884   -4.2241 H   0  0  0  0  0  0
    7.8120   -2.0174   -3.6000 H   0  0  0  0  0  0
    7.9087   -4.1119    0.1611 H   0  0  0  0  0  0
   11.1578   -5.4703   -3.4823 H   0  0  0  0  0  0
   11.8368   -5.8882   -1.9182 H   0  0  0  0  0  0
    9.8693   -7.2330   -1.4573 H   0  0  0  0  0  0
    6.5154   -0.2215   -2.5590 H   0  0  0  0  0  0
    6.6326   -2.2868    1.1978 H   0  0  0  0  0  0
    3.7253   -0.8395   -0.4797 H   0  0  0  0  0  0
    7.4542    0.9802    0.6402 H   0  0  0  0  0  0
    3.7662    2.8933    1.6946 H   0  0  0  0  0  0
    1.6400   -0.9000    1.3331 H   0  0  0  0  0  0
   -2.5152    1.5502    0.4689 H   0  0  0  0  0  0
   -0.3798   -1.9597    1.7289 H   0  0  0  0  0  0
   -4.6333    0.4099    0.8992 H   0  0  0  0  0  0
   -2.5038   -3.0923    2.1565 H   0  0  0  0  0  0
   10.5588   -7.7445   -2.8581 H   0  0  0  0  0  0
  1  2  1  0  0  0
  2  3  1  0  0  0
  2  4  1  0  0  0
  2  5  1  0  0  0
  4  6  1  0  0  0
  4  7  1  0  0  0
  4  5  1  0  0  0
  5  8  1  0  0  0
  5 40  1  0  0  0
  6  9  2  0  0  0
  6 10  1  0  0  0
  7 11  1  0  0  0
  7 41  1  0  0  0
  7 42  1  0  0  0
  8 12  1  0  0  0
  8 43  1  0  0  0
  8 44  1  0  0  0
  9 13  1  0  0  0
  9 45  1  0  0  0
 10 14  2  0  0  0
 10 46  1  0  0  0
 11 12  1  0  0  0
 11 47  1  0  0  0
 11 48  1  0  0  0
 12 49  1  0  0  0
 12 60  1  0  0  0
 13 15  2  0  0  0
 13 50  1  0  0  0
 14 15  1  0  0  0
 14 51  1  0  0  0
 15 16  1  0  0  0
 16 17  2  0  0  0
 16 18  1  0  0  0
 17 19  1  0  0  0
 17 52  1  0  0  0
 18 20  2  0  0  0
 18 53  1  0  0  0
 19 21  1  0  0  0
 19 22  2  0  0  0
 20 23  1  0  0  0
 20 22  1  0  0  0
 21 24  1  0  0  0
 21 25  1  0  0  0
 22 54  1  0  0  0
 23 26  2  0  0  0
 23 27  1  0  0  0
 24 28  2  0  0  0
 25 29  2  0  0  0
 25 55  1  0  0  0
 28 29  1  0  0  0
 29 30  1  0  0  0
 30 31  2  0  0  0
 30 32  1  0  0  0
 31 33  1  0  0  0
 31 56  1  0  0  0
 32 34  2  0  0  0
 32 57  1  0  0  0
 33 35  2  0  0  0
 33 58  1  0  0  0
 34 35  1  0  0  0
 34 59  1  0  0  0
 35 36  1  0  0  0
 36 37  1  0  0  0
 36 38  1  0  0  0
 36 39  1  0  0  0
M  CHG  2  12   1  27  -1
M  END
> <i_epik_Tot_Q>
0

> <i_epik_Tot_abs_Q>
2

> <i_lp_mmshare_version>
62121

> <i_m_Source_File_Index>
45

> <i_phase_Input_Structure_Number>
63

> <i_phase_Reference_Structure>
41

> <i_phase_Structure_Number>
63

> <Molecule Name>
82

> <Rotatable Bonds>
6

> <i_f3d_flags>
0

> <b_lp_Chiralities_Consistent>
1

> <r_canvas_IC50_human_P2Y14R,_nM>
639

> <r_canvas_pIC50>
6.1944991418416

> <r_epik_Charging_Adjusted_Penalty>
0.0258463765431816

> <r_epik_Ionization_Penalty>
  0.0130

> <r_epik_Ionization_Penalty_Charging>
  0.0130

> <r_epik_Ionization_Penalty_Neutral>
  0.0000

> <r_epik_State_Penalty>
  0.0128

> <r_lp_Energy>
59.815375

> <r_lp_tautomer_probability>
1

> <r_phase_Similarity_to_Reference>
0.936297472788765

> <s_canvas_CHEMBLID>
CHEMBL4644135

> <s_canvas_Compound>
20

> <s_canvas_Paper>
Jung2020

> <s_epik_cmdline>
J2VwaWtfcHl0aG9uJywgJy1waCcsICc3LjAnLCAnLXRuJywgJzgnLCAnLW1hJywgJzUwMCcsICctaW1hZScsICc8aW5maWxlLm1hZT4nLCAnLW9tYWUnLCAnPG91dGZpbGUubWFlPic=

> <s_epik_input>
W0NIMl0xW0NIMl1bTkhdW0NIMl1bQ0BIXShDMihGKUYpW0NAQF0xMmMzW2NIXVtjSF1jKFtjSF1bY0hdMyktYzRbY0hdYyhbY0hdYyhbY0hdNClDKD1PKVtPSF0pLW41bm5jKFtjSF01KS1jNltjSF1bY0hdYyhDKEYpKEYpRilbY0hdW2NIXTY=

> <s_lp_Force_Field>
S-OPLS

> <s_lp_Variant>
82-1

> <s_m_Source_File>
database-aligned.sdf

> <s_m_Source_Path>
/data/matteo/P2Y14-antagonists-piperidineDerivatives-Wen2023/14052024-optimized-alignment

> <s_m_entry_id>
45

> <s_m_entry_name>
database-aligned.45

> <s_m_job_name>
align_ligands_1

> <s_phase_Alignment_Method>
snapped core

> <s_phase_Alignment_Reason>


> <s_phase_Core_SMARTS>
a1aaaaa1-a2aa(aa2)-a3aaaa(a3)-a4aaa(aa4)A5AA[A]AA5

$$$$
83
                    3D
 Schrodinger Suite 2023-2.
 66 71  0  0  1  0            999 V2000
   -4.9554   -1.0334    1.0189 F   0  0  0  0  0  0
   -4.4362    0.1906    0.9163 C   0  0  0  0  0  0
   -4.9839    0.7921   -0.1398 F   0  0  0  0  0  0
   -4.7497    0.8794    2.0131 F   0  0  0  0  0  0
   -2.9232    0.1543    0.7601 C   0  0  0  0  0  0
   -2.2251    1.3397    0.4544 C   0  0  0  0  0  0
   -2.1978   -1.0448    0.9229 C   0  0  0  0  0  0
   -0.8247    1.3249    0.3071 C   0  0  0  0  0  0
   -0.7972   -1.0543    0.7730 C   0  0  0  0  0  0
   -0.0877    0.1285    0.4625 C   0  0  0  0  0  0
    1.3813    0.1129    0.3033 C   0  0  0  0  0  0
    2.1803    1.1924    0.7239 C   0  0  0  0  0  0
    2.0387   -0.9670   -0.3132 C   0  0  0  0  0  0
    3.5819    1.1709    0.5640 C   0  0  0  0  0  0
    3.4381   -0.9770   -0.4649 C   0  0  0  0  0  0
    4.2776    0.0604    0.0373 C   0  0  0  0  0  0
    4.3083    2.3255    0.9329 C   0  0  0  0  0  0
    5.6806    0.0815   -0.1254 C   0  0  0  0  0  0
    5.7116    2.3738    0.7806 C   0  0  0  0  0  0
    6.3974   -1.0891   -0.6718 C   0  0  0  0  0  0
    6.3823    1.2483    0.2510 C   0  0  0  0  0  0
    6.4810    3.6070    1.1721 C   0  0  0  0  0  0
    6.0147   -2.4031   -0.3240 C   0  0  0  0  0  0
    7.4888   -0.9298   -1.5533 C   0  0  0  0  0  0
    7.7228    3.6194    1.0173 O   0  0  0  0  0  0
    5.8579    4.5861    1.6401 O   0  5  0  0  0  0
    6.7002   -3.5222   -0.8343 C   0  0  0  0  0  0
    8.1769   -2.0456   -2.0664 C   0  0  0  0  0  0
    7.7964   -3.3603   -1.7144 C   0  0  0  0  0  0
    8.5765   -4.5570   -2.2847 C   0  0  0  0  0  0
   10.0722   -4.4972   -1.8701 C   0  0  0  0  0  0
    8.0424   -5.9414   -1.8133 C   0  0  0  0  0  0
    8.5280   -4.5730   -3.8371 C   0  0  0  0  0  0
   10.8592   -5.6873   -2.4771 C   0  0  0  0  0  0
    8.8745   -7.0953   -2.4278 C   0  0  0  0  0  0
    9.3605   -5.7543   -4.4002 C   0  0  0  0  0  0
    9.9514   -6.5411   -3.2865 N   0  3  0  0  0  0
   10.7356   -7.6663   -3.8584 C   0  0  0  0  0  0
   -2.7657    2.2665    0.3299 H   0  0  0  0  0  0
   -2.7065   -1.9660    1.1651 H   0  0  0  0  0  0
   -0.3180    2.2469    0.0629 H   0  0  0  0  0  0
   -0.2663   -1.9853    0.9072 H   0  0  0  0  0  0
    1.7138    2.0603    1.1673 H   0  0  0  0  0  0
    1.4668   -1.7939   -0.7081 H   0  0  0  0  0  0
    3.8145   -1.8062   -1.0368 H   0  0  0  0  0  0
    3.7782    3.1785    1.3322 H   0  0  0  0  0  0
    7.4564    1.2722    0.1381 H   0  0  0  0  0  0
    5.2305   -2.5826    0.3958 H   0  0  0  0  0  0
    7.8067    0.0596   -1.8481 H   0  0  0  0  0  0
    6.3694   -4.4982   -0.5158 H   0  0  0  0  0  0
    9.0070   -1.8771   -2.7358 H   0  0  0  0  0  0
   10.5300   -3.5641   -2.1996 H   0  0  0  0  0  0
   10.1608   -4.5099   -0.7828 H   0  0  0  0  0  0
    8.0819   -6.0154   -0.7256 H   0  0  0  0  0  0
    6.9965   -6.0650   -2.0983 H   0  0  0  0  0  0
    7.4949   -4.6505   -4.1789 H   0  0  0  0  0  0
    8.9134   -3.6401   -4.2491 H   0  0  0  0  0  0
   11.6765   -5.3132   -3.0962 H   0  0  0  0  0  0
   11.3180   -6.2735   -1.6789 H   0  0  0  0  0  0
    9.3021   -7.7088   -1.6328 H   0  0  0  0  0  0
    8.2257   -7.7509   -3.0113 H   0  0  0  0  0  0
    8.7267   -6.3914   -5.0196 H   0  0  0  0  0  0
   10.1492   -5.3739   -5.0518 H   0  0  0  0  0  0
   10.1046   -8.3244   -4.4578 H   0  0  0  0  0  0
   11.1907   -8.2715   -3.0726 H   0  0  0  0  0  0
   11.5383   -7.3028   -4.5016 H   0  0  0  0  0  0
  1  2  1  0  0  0
  2  3  1  0  0  0
  2  4  1  0  0  0
  2  5  1  0  0  0
  5  6  2  0  0  0
  5  7  1  0  0  0
  6  8  1  0  0  0
  6 39  1  0  0  0
  7  9  2  0  0  0
  7 40  1  0  0  0
  8 10  2  0  0  0
  8 41  1  0  0  0
  9 10  1  0  0  0
  9 42  1  0  0  0
 10 11  1  0  0  0
 11 12  1  0  0  0
 11 13  2  0  0  0
 12 14  2  0  0  0
 12 43  1  0  0  0
 13 15  1  0  0  0
 13 44  1  0  0  0
 14 16  1  0  0  0
 14 17  1  0  0  0
 15 16  2  0  0  0
 15 45  1  0  0  0
 16 18  1  0  0  0
 17 19  2  0  0  0
 17 46  1  0  0  0
 18 20  1  0  0  0
 18 21  2  0  0  0
 19 22  1  0  0  0
 19 21  1  0  0  0
 20 23  2  0  0  0
 20 24  1  0  0  0
 21 47  1  0  0  0
 22 25  2  0  0  0
 22 26  1  0  0  0
 23 27  1  0  0  0
 23 48  1  0  0  0
 24 28  2  0  0  0
 24 49  1  0  0  0
 27 29  2  0  0  0
 27 50  1  0  0  0
 28 29  1  0  0  0
 28 51  1  0  0  0
 29 30  1  0  0  0
 30 31  1  0  0  0
 30 32  1  0  0  0
 30 33  1  0  0  0
 31 34  1  0  0  0
 31 52  1  0  0  0
 31 53  1  0  0  0
 32 35  1  0  0  0
 32 54  1  0  0  0
 32 55  1  0  0  0
 33 36  1  0  0  0
 33 56  1  0  0  0
 33 57  1  0  0  0
 34 37  1  0  0  0
 34 58  1  0  0  0
 34 59  1  0  0  0
 35 37  1  0  0  0
 35 60  1  0  0  0
 35 61  1  0  0  0
 36 37  1  0  0  0
 36 62  1  0  0  0
 36 63  1  0  0  0
 37 38  1  0  0  0
 38 64  1  0  0  0
 38 65  1  0  0  0
 38 66  1  0  0  0
M  CHG  2  26  -1  37   1
M  END
> <i_epik_Tot_Q>
0

> <i_epik_Tot_abs_Q>
2

> <i_lp_mmshare_version>
62121

> <i_m_Source_File_Index>
46

> <i_phase_Input_Structure_Number>
64

> <i_phase_Reference_Structure>
61

> <i_phase_Structure_Number>
64

> <Molecule Name>
83

> <Rotatable Bonds>
5

> <i_f3d_flags>
0

> <b_lp_Chiralities_Consistent>
1

> <r_canvas_IC50_human_P2Y14R,_nM>
38.3

> <r_canvas_pIC50>
7.41680122603138

> <r_epik_Charging_Adjusted_Penalty>
0.00143519162298062

> <r_epik_Ionization_Penalty>
  0.0007

> <r_epik_Ionization_Penalty_Charging>
  0.0007

> <r_epik_Ionization_Penalty_Neutral>
  0.0000

> <r_epik_State_Penalty>
  0.0007

> <r_lp_Energy>
84.893298

> <r_phase_Similarity_to_Reference>
0.804621141550746

> <s_canvas_CHEMBLID>
CHEMBL4642765

> <s_canvas_Compound>
21

> <s_canvas_Paper>
Jung2020

> <s_epik_cmdline>
J2VwaWtfcHl0aG9uJywgJy1waCcsICc3LjAnLCAnLXRuJywgJzgnLCAnLW1hJywgJzUwMCcsICctaW1hZScsICc8aW5maWxlLm1hZT4nLCAnLW9tYWUnLCAnPG91dGZpbGUubWFlPic=

> <s_epik_input>
RkMoRikoRiljMVtjSF1bY0hdYyhbY0hdW2NIXTEpLWMoW2NIXTIpW2NIXVtjSF1jKGMyMyljKFtjSF1jKFtjSF0zKUMoPU8pW09IXSktYzRbY0hdW2NIXWMoW2NIXVtjSF00KUM1NltDSDJdW0NIMl1bTitdKFtDSDNdKShbQ0gyXVtDSDJdNSlbQ0gyXVtDSDJdNg==

> <s_lp_Force_Field>
S-OPLS

> <s_lp_Variant>
83-1

> <s_m_Source_File>
database-aligned.sdf

> <s_m_Source_Path>
/data/matteo/P2Y14-antagonists-piperidineDerivatives-Wen2023/14052024-optimized-alignment

> <s_m_entry_id>
46

> <s_m_entry_name>
database-aligned.46

> <s_m_job_name>
align_ligands_1

> <s_phase_Alignment_Method>
snapped core

> <s_phase_Alignment_Reason>


> <s_phase_Core_SMARTS>
a1aaaaa1-a2aaa(aa2)A34AA[A](AA3)AA4

$$$$
86
                    3D
 Schrodinger Suite 2023-2.
 47 50  0  0  1  0            999 V2000
   -4.8466   -3.4241    1.6134 F   0  0  0  0  0  0
   -5.0120   -2.1173    1.8111 C   0  0  0  0  0  0
   -5.9312   -1.6407    0.9732 F   0  0  0  0  0  0
   -5.3787   -1.8881    3.0709 F   0  0  0  0  0  0
   -3.7102   -1.4192    1.5505 C   0  0  0  0  0  0
   -3.7049   -0.1126    1.0769 C   0  0  0  0  0  0
   -2.5092   -2.0790    1.7828 C   0  0  0  0  0  0
   -2.4987    0.5343    0.8355 C   0  0  0  0  0  0
   -1.3030   -1.4321    1.5414 C   0  0  0  0  0  0
   -1.2977   -0.1255    1.0677 C   0  0  0  0  0  0
    0.0041    0.5726    0.8072 N   0  0  0  0  0  0
    0.0745    1.8131    0.3572 N   0  0  0  0  0  0
    1.2788    0.0570    0.9868 C   0  0  0  0  0  0
    1.4087    2.1505    0.2272 N   0  0  0  0  0  0
    2.1133    1.0787    0.6116 C   0  0  0  0  0  0
    3.5729    1.0430    0.6162 C   0  0  0  0  0  0
    4.2688   -0.0378   -0.0014 C   0  0  0  0  0  0
    4.3095    2.0826    1.2307 C   0  0  0  0  0  0
    5.6959   -0.0428    0.0147 C   0  0  0  0  0  0
    5.7140    2.0823    1.2549 C   0  0  0  0  0  0
    6.4845   -1.1328   -0.6109 C   0  0  0  0  0  0
    6.3738    1.0063    0.6388 C   0  0  0  0  0  0
    6.4824    3.1926    1.9177 C   0  0  0  0  0  0
    6.8196   -1.0713   -1.9653 C   0  0  0  0  0  0
    6.8885   -2.2318    0.1496 C   0  0  0  0  0  0
    7.7329    3.1460    1.9172 O   0  0  0  0  0  0
    5.8483    4.1301    2.4513 O   0  5  0  0  0  0
    7.5469   -2.1010   -2.5562 C   0  0  0  0  0  0
    7.6134   -3.2639   -0.4389 C   0  0  0  0  0  0
    7.9469   -3.2050   -1.7964 C   0  0  0  0  0  0
    8.7028   -4.3255   -2.4546 C   0  0  0  0  0  0
    8.5417   -4.5942   -3.6438 O   0  0  0  0  0  0
    9.5941   -4.9653   -1.6911 N   0  0  0  0  0  0
   -4.6330    0.4107    0.8997 H   0  0  0  0  0  0
   -2.5030   -3.0921    2.1571 H   0  0  0  0  0  0
   -2.5154    1.5502    0.4693 H   0  0  0  0  0  0
   -0.3842   -1.9649    1.7310 H   0  0  0  0  0  0
    1.4904   -0.9376    1.3476 H   0  0  0  0  0  0
    3.7261   -0.8401   -0.4798 H   0  0  0  0  0  0
    3.7667    2.8945    1.6934 H   0  0  0  0  0  0
    7.4542    0.9796    0.6394 H   0  0  0  0  0  0
    6.5109   -0.2240   -2.5603 H   0  0  0  0  0  0
    6.6311   -2.2877    1.1973 H   0  0  0  0  0  0
    7.7925   -2.0375   -3.6066 H   0  0  0  0  0  0
    7.9007   -4.1105    0.1675 H   0  0  0  0  0  0
    9.7148   -4.6972   -0.7254 H   0  0  0  0  0  0
   10.1469   -5.7124   -2.0859 H   0  0  0  0  0  0
  1  2  1  0  0  0
  2  3  1  0  0  0
  2  4  1  0  0  0
  2  5  1  0  0  0
  5  6  2  0  0  0
  5  7  1  0  0  0
  6  8  1  0  0  0
  6 34  1  0  0  0
  7  9  2  0  0  0
  7 35  1  0  0  0
  8 10  2  0  0  0
  8 36  1  0  0  0
  9 10  1  0  0  0
  9 37  1  0  0  0
 10 11  1  0  0  0
 11 12  1  0  0  0
 11 13  1  0  0  0
 12 14  2  0  0  0
 13 15  2  0  0  0
 13 38  1  0  0  0
 14 15  1  0  0  0
 15 16  1  0  0  0
 16 17  2  0  0  0
 16 18  1  0  0  0
 17 19  1  0  0  0
 17 39  1  0  0  0
 18 20  2  0  0  0
 18 40  1  0  0  0
 19 21  1  0  0  0
 19 22  2  0  0  0
 20 23  1  0  0  0
 20 22  1  0  0  0
 21 24  2  0  0  0
 21 25  1  0  0  0
 22 41  1  0  0  0
 23 26  2  0  0  0
 23 27  1  0  0  0
 24 28  1  0  0  0
 24 42  1  0  0  0
 25 29  2  0  0  0
 25 43  1  0  0  0
 28 30  2  0  0  0
 28 44  1  0  0  0
 29 30  1  0  0  0
 29 45  1  0  0  0
 30 31  1  0  0  0
 31 32  2  0  0  0
 31 33  1  0  0  0
 33 46  1  0  0  0
 33 47  1  0  0  0
M  CHG  1  27  -1
M  END
> <i_epik_Tot_Q>
-1

> <i_epik_Tot_abs_Q>
1

> <i_lp_mmshare_version>
62121

> <i_m_Source_File_Index>
47

> <i_phase_Input_Structure_Number>
65

> <i_phase_Reference_Structure>
41

> <i_phase_Structure_Number>
65

> <Molecule Name>
86

> <Rotatable Bonds>
6

> <i_f3d_flags>
0

> <b_lp_Chiralities_Consistent>
1

> <r_canvas_IC50_human_P2Y14R,_nM>
1680

> <r_canvas_pIC50>
5.77469071827414

> <r_epik_Charging_Adjusted_Penalty>
0.000713800924892856

> <r_epik_Ionization_Penalty>
  0.0004

> <r_epik_Ionization_Penalty_Charging>
  0.0004

> <r_epik_Ionization_Penalty_Neutral>
  0.0000

> <r_epik_State_Penalty>
  0.0004

> <r_lp_Energy>
44.659833

> <r_lp_tautomer_probability>
1

> <r_phase_Similarity_to_Reference>
0.773865106447172

> <s_canvas_CHEMBLID>
CHEMBL4642592

> <s_canvas_Compound>
24

> <s_canvas_Paper>
Jung2020

> <s_epik_cmdline>
J2VwaWtfcHl0aG9uJywgJy1waCcsICc3LjAnLCAnLXRuJywgJzgnLCAnLW1hJywgJzUwMCcsICctaW1hZScsICc8aW5maWxlLm1hZT4nLCAnLW9tYWUnLCAnPG91dGZpbGUubWFlPic=

> <s_epik_input>
RkMoRikoRiljMVtjSF1bY0hdYyhbY0hdW2NIXTEpLW4ybm5jKFtjSF0yKS1jM1tjSF1jKFtjSF1jKFtjSF0zKUMoPU8pW09IXSktYzRbY0hdW2NIXWMoW2NIXVtjSF00KUMoPU8pW05IMl0=

> <s_lp_Force_Field>
S-OPLS

> <s_lp_Variant>
86-1

> <s_m_Source_File>
database-aligned.sdf

> <s_m_Source_Path>
/data/matteo/P2Y14-antagonists-piperidineDerivatives-Wen2023/14052024-optimized-alignment

> <s_m_entry_id>
47

> <s_m_entry_name>
database-aligned.47

> <s_m_job_name>
align_ligands_1

> <s_phase_Alignment_Method>
snapped core

> <s_phase_Alignment_Reason>


> <s_phase_Core_SMARTS>
a1aaaaa1-a2aa(aa2)-a3aaaa(a3)-a4aaaaa4

$$$$
87
                    3D
 Schrodinger Suite 2023-2.
 59 63  0  0  1  0            999 V2000
   -4.8466   -3.4241    1.6134 F   0  0  0  0  0  0
   -5.0120   -2.1173    1.8111 C   0  0  0  0  0  0
   -5.9312   -1.6407    0.9732 F   0  0  0  0  0  0
   -5.3787   -1.8881    3.0709 F   0  0  0  0  0  0
   -3.7102   -1.4192    1.5505 C   0  0  0  0  0  0
   -3.7049   -0.1126    1.0769 C   0  0  0  0  0  0
   -2.5092   -2.0790    1.7828 C   0  0  0  0  0  0
   -2.4987    0.5343    0.8355 C   0  0  0  0  0  0
   -1.3030   -1.4321    1.5414 C   0  0  0  0  0  0
   -1.2977   -0.1255    1.0677 C   0  0  0  0  0  0
    0.0041    0.5726    0.8072 N   0  0  0  0  0  0
    0.0745    1.8131    0.3572 N   0  0  0  0  0  0
    1.2788    0.0570    0.9868 C   0  0  0  0  0  0
    1.4087    2.1505    0.2272 N   0  0  0  0  0  0
    2.1133    1.0787    0.6116 C   0  0  0  0  0  0
    3.5729    1.0430    0.6162 C   0  0  0  0  0  0
    4.2688   -0.0378   -0.0014 C   0  0  0  0  0  0
    4.3095    2.0826    1.2307 C   0  0  0  0  0  0
    5.6959   -0.0428    0.0147 C   0  0  0  0  0  0
    5.7140    2.0823    1.2549 C   0  0  0  0  0  0
    6.4845   -1.1328   -0.6109 C   0  0  0  0  0  0
    6.3738    1.0063    0.6388 C   0  0  0  0  0  0
    6.4824    3.1926    1.9177 C   0  0  0  0  0  0
    6.8885   -2.2318    0.1496 C   0  0  0  0  0  0
    6.8196   -1.0713   -1.9653 C   0  0  0  0  0  0
    7.7329    3.1460    1.9172 O   0  0  0  0  0  0
    5.8483    4.1301    2.4513 O   0  5  0  0  0  0
    7.6134   -3.2639   -0.4389 C   0  0  0  0  0  0
    7.5469   -2.1010   -2.5562 C   0  0  0  0  0  0
    7.9469   -3.2050   -1.7964 C   0  0  0  0  0  0
    8.7323   -4.3448   -2.4511 C   0  0  0  0  0  0
   10.1198   -4.5548   -1.7988 C   0  0  0  0  0  0
    7.9157   -5.6578   -2.4890 C   0  0  0  0  0  0
   10.9018   -5.7110   -2.4500 C   0  0  0  0  0  0
    8.6977   -6.8138   -3.1399 C   0  0  0  0  0  0
   10.0472   -6.9906   -2.4217 N   0  3  0  0  0  0
   -4.6329    0.4100    0.8976 H   0  0  0  0  0  0
   -2.5031   -3.0929    2.1549 H   0  0  0  0  0  0
   -2.5154    1.5500    0.4687 H   0  0  0  0  0  0
   -0.3842   -1.9650    1.7304 H   0  0  0  0  0  0
    1.4908   -0.9378    1.3470 H   0  0  0  0  0  0
    3.7258   -0.8405   -0.4787 H   0  0  0  0  0  0
    3.7668    2.8941    1.6942 H   0  0  0  0  0  0
    7.4542    0.9796    0.6395 H   0  0  0  0  0  0
    6.6329   -2.2864    1.1979 H   0  0  0  0  0  0
    6.5110   -0.2236   -2.5599 H   0  0  0  0  0  0
    7.9105   -4.1101    0.1627 H   0  0  0  0  0  0
    7.7941   -2.0392   -3.6059 H   0  0  0  0  0  0
    8.9139   -4.0562   -3.4876 H   0  0  0  0  0  0
   10.7035   -3.6359   -1.8639 H   0  0  0  0  0  0
   10.0028   -4.7686   -0.7359 H   0  0  0  0  0  0
    7.6375   -5.9485   -1.4752 H   0  0  0  0  0  0
    6.9818   -5.4989   -3.0294 H   0  0  0  0  0  0
   11.1522   -5.4689   -3.4834 H   0  0  0  0  0  0
   11.8385   -5.8877   -1.9212 H   0  0  0  0  0  0
    8.1304   -7.7428   -3.0815 H   0  0  0  0  0  0
    8.8768   -6.6076   -4.1957 H   0  0  0  0  0  0
   10.5604   -7.7387   -2.8656 H   0  0  0  0  0  0
    9.8709   -7.2405   -1.4591 H   0  0  0  0  0  0
  1  2  1  0  0  0
  2  3  1  0  0  0
  2  4  1  0  0  0
  2  5  1  0  0  0
  5  6  2  0  0  0
  5  7  1  0  0  0
  6  8  1  0  0  0
  6 37  1  0  0  0
  7  9  2  0  0  0
  7 38  1  0  0  0
  8 10  2  0  0  0
  8 39  1  0  0  0
  9 10  1  0  0  0
  9 40  1  0  0  0
 10 11  1  0  0  0
 11 12  1  0  0  0
 11 13  1  0  0  0
 12 14  2  0  0  0
 13 15  2  0  0  0
 13 41  1  0  0  0
 14 15  1  0  0  0
 15 16  1  0  0  0
 16 17  2  0  0  0
 16 18  1  0  0  0
 17 19  1  0  0  0
 17 42  1  0  0  0
 18 20  2  0  0  0
 18 43  1  0  0  0
 19 21  1  0  0  0
 19 22  2  0  0  0
 20 23  1  0  0  0
 20 22  1  0  0  0
 21 24  2  0  0  0
 21 25  1  0  0  0
 22 44  1  0  0  0
 23 26  2  0  0  0
 23 27  1  0  0  0
 24 28  1  0  0  0
 24 45  1  0  0  0
 25 29  2  0  0  0
 25 46  1  0  0  0
 28 30  2  0  0  0
 28 47  1  0  0  0
 29 30  1  0  0  0
 29 48  1  0  0  0
 30 31  1  0  0  0
 31 32  1  0  0  0
 31 33  1  0  0  0
 31 49  1  0  0  0
 32 34  1  0  0  0
 32 50  1  0  0  0
 32 51  1  0  0  0
 33 35  1  0  0  0
 33 52  1  0  0  0
 33 53  1  0  0  0
 34 36  1  0  0  0
 34 54  1  0  0  0
 34 55  1  0  0  0
 35 36  1  0  0  0
 35 56  1  0  0  0
 35 57  1  0  0  0
 36 58  1  0  0  0
 36 59  1  0  0  0
M  CHG  2  27  -1  36   1
M  END
> <i_epik_Tot_Q>
0

> <i_epik_Tot_abs_Q>
2

> <i_lp_mmshare_version>
62121

> <i_m_Source_File_Index>
48

> <i_phase_Input_Structure_Number>
66

> <i_phase_Reference_Structure>
41

> <i_phase_Structure_Number>
66

> <Molecule Name>
87

> <Rotatable Bonds>
6

> <i_f3d_flags>
0

> <b_lp_Chiralities_Consistent>
1

> <r_canvas_IC50_human_P2Y14R,_nM>
644

> <r_canvas_pIC50>
6.19111413264019

> <r_epik_Charging_Adjusted_Penalty>
0.000989253196680945

> <r_epik_Ionization_Penalty>
  0.0010

> <r_epik_Ionization_Penalty_Charging>
  0.0010

> <r_epik_Ionization_Penalty_Neutral>
  0.0000

> <r_epik_State_Penalty>
  0.0000

> <r_lp_Energy>
58.309808

> <r_lp_tautomer_probability>
1

> <r_phase_Similarity_to_Reference>
0.916517155790091

> <s_canvas_CHEMBLID>
CHEMBL4642215

> <s_canvas_Compound>
25

> <s_canvas_Paper>
Jung2020

> <s_epik_cmdline>
J2VwaWtfcHl0aG9uJywgJy1waCcsICc3LjAnLCAnLXRuJywgJzgnLCAnLW1hJywgJzUwMCcsICctaW1hZScsICc8aW5maWxlLm1hZT4nLCAnLW9tYWUnLCAnPG91dGZpbGUubWFlPic=

> <s_epik_input>
RkMoRikoRiljMVtjSF1bY0hdYyhbY0hdW2NIXTEpLW4ybm5jKFtjSF0yKS1jM1tjSF1jKFtjSF1jKFtjSF0zKUMoPU8pW09IXSktYzRbY0hdW2NIXWMoW2NIXVtjSF00KVtDSF01W0NIMl1bQ0gyXVtOSF1bQ0gyXVtDSDJdNQ==

> <s_lp_Force_Field>
S-OPLS

> <s_lp_Variant>
87-1

> <s_m_Source_File>
database-aligned.sdf

> <s_m_Source_Path>
/data/matteo/P2Y14-antagonists-piperidineDerivatives-Wen2023/14052024-optimized-alignment

> <s_m_entry_id>
48

> <s_m_entry_name>
database-aligned.48

> <s_m_job_name>
align_ligands_1

> <s_phase_Alignment_Method>
snapped core

> <s_phase_Alignment_Reason>


> <s_phase_Core_SMARTS>
a1aaaaa1-a2aa(aa2)-a3aaaa(a3)-a4aaa(aa4)A5AA[A]AA5

$$$$
88
                    3D
 Schrodinger Suite 2023-2.
 56 59  0  0  1  0            999 V2000
    5.6073   -2.4623   -1.4011 S   0  0  0  0  0  0
    6.4580   -1.1625   -0.6298 C   0  0  0  0  0  0
    7.1117   -3.2158   -1.8216 C   0  0  0  0  0  0
    5.6959   -0.0428    0.0147 C   0  0  0  0  0  0
    7.8364   -1.3189   -0.7029 C   0  0  0  0  0  0
    7.1183   -4.5108   -2.5786 C   0  0  0  0  0  0
    8.2078   -2.4856   -1.3800 C   0  0  0  0  0  0
    4.2688   -0.0378   -0.0014 C   0  0  0  0  0  0
    6.3738    1.0063    0.6388 C   0  0  0  0  0  0
    6.1837   -4.9478   -3.2437 O   0  0  0  0  0  0
    8.2787   -5.1548   -2.4493 N   0  0  0  0  0  0
    3.5729    1.0430    0.6162 C   0  0  0  0  0  0
    5.7140    2.0823    1.2549 C   0  0  0  0  0  0
    8.6078   -6.4397   -3.0594 C   0  0  0  0  0  0
    2.1133    1.0787    0.6116 C   0  0  0  0  0  0
    4.3095    2.0826    1.2307 C   0  0  0  0  0  0
    6.4824    3.1926    1.9177 C   0  0  0  0  0  0
   10.0048   -6.8310   -2.6783 C   0  0  0  0  0  0
    1.4087    2.1505    0.2272 N   0  0  0  0  0  0
    1.2788    0.0570    0.9868 C   0  0  0  0  0  0
    7.7329    3.1460    1.9172 O   0  0  0  0  0  0
    5.8483    4.1301    2.4513 O   0  5  0  0  0  0
   10.9663   -5.7865   -3.1627 C   0  0  0  0  0  0
    0.0745    1.8131    0.3572 N   0  0  0  0  0  0
    0.0041    0.5726    0.8072 N   0  0  0  0  0  0
   12.3261   -6.1674   -2.7917 N   0  3  0  0  0  0
   -1.2977   -0.1255    1.0677 C   0  0  0  0  0  0
   -2.4987    0.5343    0.8355 C   0  0  0  0  0  0
   -1.3030   -1.4321    1.5414 C   0  0  0  0  0  0
   -3.7049   -0.1126    1.0769 C   0  0  0  0  0  0
   -2.5092   -2.0790    1.7828 C   0  0  0  0  0  0
   -3.7102   -1.4192    1.5505 C   0  0  0  0  0  0
   -5.0120   -2.1173    1.8111 C   0  0  0  0  0  0
   -4.8466   -3.4241    1.6134 F   0  0  0  0  0  0
   -5.9312   -1.6407    0.9732 F   0  0  0  0  0  0
   -5.3787   -1.8881    3.0709 F   0  0  0  0  0  0
    8.5449   -0.6168   -0.2829 H   0  0  0  0  0  0
    9.2352   -2.7851   -1.5415 H   0  0  0  0  0  0
    3.7388   -0.8508   -0.4756 H   0  0  0  0  0  0
    7.4539    0.9958    0.6428 H   0  0  0  0  0  0
    9.0718   -4.8325   -1.9134 H   0  0  0  0  0  0
    7.9091   -7.1986   -2.7074 H   0  0  0  0  0  0
    8.5371   -6.3557   -4.1439 H   0  0  0  0  0  0
    3.7901    2.9040    1.7032 H   0  0  0  0  0  0
   10.0755   -6.9150   -1.5938 H   0  0  0  0  0  0
   10.2505   -7.7903   -3.1338 H   0  0  0  0  0  0
    1.4913   -0.9385    1.3453 H   0  0  0  0  0  0
   10.8956   -5.7025   -4.2471 H   0  0  0  0  0  0
   10.7206   -4.8273   -2.7071 H   0  0  0  0  0  0
   12.9735   -5.4641   -3.1178 H   0  0  0  0  0  0
   12.5538   -7.0563   -3.2138 H   0  0  0  0  0  0
   -2.5207    1.5481    0.4669 H   0  0  0  0  0  0
   -0.3805   -1.9622    1.7268 H   0  0  0  0  0  0
   -4.6332    0.4059    0.8872 H   0  0  0  0  0  0
   -2.5031   -3.0966    2.1446 H   0  0  0  0  0  0
   12.3916   -6.2452   -1.7868 H   0  0  0  0  0  0
  1  2  1  0  0  0
  1  3  1  0  0  0
  2  4  1  0  0  0
  2  5  2  0  0  0
  3  6  1  0  0  0
  3  7  2  0  0  0
  4  8  2  0  0  0
  4  9  1  0  0  0
  5  7  1  0  0  0
  5 37  1  0  0  0
  6 10  2  0  0  0
  6 11  1  0  0  0
  7 38  1  0  0  0
  8 12  1  0  0  0
  8 39  1  0  0  0
  9 13  2  0  0  0
  9 40  1  0  0  0
 11 14  1  0  0  0
 11 41  1  0  0  0
 12 15  1  0  0  0
 12 16  2  0  0  0
 13 17  1  0  0  0
 13 16  1  0  0  0
 14 18  1  0  0  0
 14 42  1  0  0  0
 14 43  1  0  0  0
 15 19  1  0  0  0
 15 20  2  0  0  0
 16 44  1  0  0  0
 17 21  2  0  0  0
 17 22  1  0  0  0
 18 23  1  0  0  0
 18 45  1  0  0  0
 18 46  1  0  0  0
 19 24  2  0  0  0
 20 25  1  0  0  0
 20 47  1  0  0  0
 23 26  1  0  0  0
 23 48  1  0  0  0
 23 49  1  0  0  0
 24 25  1  0  0  0
 25 27  1  0  0  0
 26 50  1  0  0  0
 26 51  1  0  0  0
 26 56  1  0  0  0
 27 28  2  0  0  0
 27 29  1  0  0  0
 28 30  1  0  0  0
 28 52  1  0  0  0
 29 31  2  0  0  0
 29 53  1  0  0  0
 30 32  2  0  0  0
 30 54  1  0  0  0
 31 32  1  0  0  0
 31 55  1  0  0  0
 32 33  1  0  0  0
 33 34  1  0  0  0
 33 35  1  0  0  0
 33 36  1  0  0  0
M  CHG  2  22  -1  26   1
M  END
> <i_epik_Tot_Q>
0

> <i_epik_Tot_abs_Q>
2

> <i_lp_mmshare_version>
62121

> <i_m_Source_File_Index>
19

> <i_phase_Input_Structure_Number>
20

> <i_phase_Reference_Structure>
1

> <i_phase_Structure_Number>
20

> <Molecule Name>
88

> <Rotatable Bonds>
9

> <i_f3d_flags>
0

> <b_lp_Chiralities_Consistent>
1

> <r_canvas_IC50_human_P2Y14R,_nM>
2600

> <r_canvas_pIC50>
5.58502665202918

> <r_epik_Charging_Adjusted_Penalty>
0.00137582793642631

> <r_epik_Ionization_Penalty>
  0.0014

> <r_epik_Ionization_Penalty_Charging>
  0.0014

> <r_epik_Ionization_Penalty_Neutral>
  0.0000

> <r_epik_State_Penalty>
  0.0000

> <r_lp_Energy>
43.741367

> <r_lp_tautomer_probability>
1

> <r_phase_Similarity_to_Reference>
0.798538131952223

> <s_canvas_CHEMBLID>
CHEMBL4641243

> <s_canvas_Compound>
26

> <s_canvas_Paper>
Jung2020

> <s_epik_cmdline>
J2VwaWtfcHl0aG9uJywgJy1waCcsICc3LjAnLCAnLXRuJywgJzgnLCAnLW1hJywgJzUwMCcsICctaW1hZScsICc8aW5maWxlLm1hZT4nLCAnLW9tYWUnLCAnPG91dGZpbGUubWFlPic=

> <s_epik_input>
W05IMl1bQ0gyXVtDSDJdW0NIMl1bTkhdQyg9TyljKFtjSF1bY0hdMSlzYzEtYzJbY0hdYyhbY0hdYyhbY0hdMilDKD1PKVtPSF0pLWMzbm5uKFtjSF0zKS1jNFtjSF1bY0hdYyhDKEYpKEYpRilbY0hdW2NIXTQ=

> <s_lp_Force_Field>
S-OPLS

> <s_lp_Variant>
88-1

> <s_m_Source_File>
database-not-aligned-realigned.sdf

> <s_m_Source_Path>
/data/matteo/P2Y14-antagonists-piperidineDerivatives-Wen2023/14052024-optimized-alignment

> <s_m_entry_id>
146

> <s_m_entry_name>
database-not-aligned-realigned.19

> <s_m_job_name>
align_ligands_2

> <s_phase_Alignment_Method>
snapped core

> <s_phase_Alignment_Reason>


> <s_phase_Core_SMARTS>
a1aaaaa1-a2aa(aa2)-a3aaaaa3

$$$$
89
                    3D
 Schrodinger Suite 2023-2.
 45 47  0  0  1  0            999 V2000
   -4.5684    3.0741   -0.0225 F   0  0  0  0  0  0
   -4.3483    1.9949    0.7295 C   0  0  0  0  0  0
   -4.6535    2.2866    1.9934 F   0  0  0  0  0  0
   -5.1528    1.0190    0.3074 F   0  0  0  0  0  0
   -2.8977    1.5420    0.6556 C   0  0  0  0  0  0
   -1.9015    2.3740    0.1009 C   0  0  0  0  0  0
   -2.5347    0.2747    1.1569 C   0  0  0  0  0  0
   -0.5620    1.9422    0.0461 C   0  0  0  0  0  0
   -1.1959   -0.1584    1.1023 C   0  0  0  0  0  0
   -0.1951    0.6747    0.5553 C   0  0  0  0  0  0
    1.2274    0.1939    0.4864 C   0  0  0  0  0  0
    1.4709   -1.0082    0.3800 O   0  0  0  0  0  0
    2.1567    1.1577    0.6338 N   0  0  0  0  0  0
    3.5729    1.0430    0.6162 C   0  0  0  0  0  0
    4.2688   -0.0378   -0.0014 C   0  0  0  0  0  0
    4.3095    2.0826    1.2307 C   0  0  0  0  0  0
    5.6959   -0.0428    0.0147 C   0  0  0  0  0  0
    5.7140    2.0823    1.2549 C   0  0  0  0  0  0
    6.4845   -1.1328   -0.6109 C   0  0  0  0  0  0
    6.3738    1.0063    0.6388 C   0  0  0  0  0  0
    6.4824    3.1926    1.9177 C   0  0  0  0  0  0
    6.8196   -1.0713   -1.9653 C   0  0  0  0  0  0
    6.8885   -2.2318    0.1496 C   0  0  0  0  0  0
    7.7329    3.1460    1.9172 O   0  0  0  0  0  0
    5.8483    4.1301    2.4513 O   0  5  0  0  0  0
    7.5469   -2.1010   -2.5562 C   0  0  0  0  0  0
    7.6134   -3.2639   -0.4389 C   0  0  0  0  0  0
    7.9469   -3.2050   -1.7964 C   0  0  0  0  0  0
    8.7028   -4.3255   -2.4546 C   0  0  0  0  0  0
    8.5417   -4.5942   -3.6438 O   0  0  0  0  0  0
    9.5941   -4.9653   -1.6911 N   0  0  0  0  0  0
   -2.1550    3.3467   -0.2935 H   0  0  0  0  0  0
   -3.2883   -0.3720    1.5819 H   0  0  0  0  0  0
    0.1774    2.5951   -0.3948 H   0  0  0  0  0  0
   -0.9435   -1.1352    1.4897 H   0  0  0  0  0  0
    1.8031    2.0833    0.8275 H   0  0  0  0  0  0
    3.7500   -0.8412   -0.5011 H   0  0  0  0  0  0
    3.7679    2.8967    1.6911 H   0  0  0  0  0  0
    7.4543    0.9793    0.6401 H   0  0  0  0  0  0
    6.5133   -0.2226   -2.5594 H   0  0  0  0  0  0
    6.6345   -2.2861    1.1983 H   0  0  0  0  0  0
    7.8029   -2.0245   -3.6030 H   0  0  0  0  0  0
    7.9173   -4.1059    0.1663 H   0  0  0  0  0  0
    9.7148   -4.6972   -0.7254 H   0  0  0  0  0  0
   10.1469   -5.7124   -2.0859 H   0  0  0  0  0  0
  1  2  1  0  0  0
  2  3  1  0  0  0
  2  4  1  0  0  0
  2  5  1  0  0  0
  5  6  2  0  0  0
  5  7  1  0  0  0
  6  8  1  0  0  0
  6 32  1  0  0  0
  7  9  2  0  0  0
  7 33  1  0  0  0
  8 10  2  0  0  0
  8 34  1  0  0  0
  9 10  1  0  0  0
  9 35  1  0  0  0
 10 11  1  0  0  0
 11 12  2  0  0  0
 11 13  1  0  0  0
 13 14  1  0  0  0
 13 36  1  0  0  0
 14 15  2  0  0  0
 14 16  1  0  0  0
 15 17  1  0  0  0
 15 37  1  0  0  0
 16 18  2  0  0  0
 16 38  1  0  0  0
 17 19  1  0  0  0
 17 20  2  0  0  0
 18 21  1  0  0  0
 18 20  1  0  0  0
 19 22  2  0  0  0
 19 23  1  0  0  0
 20 39  1  0  0  0
 21 24  2  0  0  0
 21 25  1  0  0  0
 22 26  1  0  0  0
 22 40  1  0  0  0
 23 27  2  0  0  0
 23 41  1  0  0  0
 26 28  2  0  0  0
 26 42  1  0  0  0
 27 28  1  0  0  0
 27 43  1  0  0  0
 28 29  1  0  0  0
 29 30  2  0  0  0
 29 31  1  0  0  0
 31 44  1  0  0  0
 31 45  1  0  0  0
M  CHG  1  25  -1
M  END
> <i_epik_Tot_Q>
-1

> <i_epik_Tot_abs_Q>
1

> <i_lp_mmshare_version>
62121

> <i_m_Source_File_Index>
49

> <i_phase_Input_Structure_Number>
68

> <i_phase_Reference_Structure>
100

> <i_phase_Structure_Number>
68

> <Molecule Name>
89

> <Rotatable Bonds>
6

> <i_f3d_flags>
0

> <b_lp_Chiralities_Consistent>
1

> <r_canvas_IC50_human_P2Y14R,_nM>
3050

> <r_canvas_pIC50>
5.51570016065321

> <r_epik_Charging_Adjusted_Penalty>
0.000800868384284393

> <r_epik_Ionization_Penalty>
  0.0004

> <r_epik_Ionization_Penalty_Charging>
  0.0004

> <r_epik_Ionization_Penalty_Neutral>
  0.0000

> <r_epik_State_Penalty>
  0.0004

> <r_lp_Energy>
44.633966

> <r_phase_Similarity_to_Reference>
0.874725193889457

> <s_canvas_CHEMBLID>
CHEMBL4639356

> <s_canvas_Compound>
27

> <s_canvas_Paper>
Jung2020

> <s_epik_cmdline>
J2VwaWtfcHl0aG9uJywgJy1waCcsICc3LjAnLCAnLXRuJywgJzgnLCAnLW1hJywgJzUwMCcsICctaW1hZScsICc8aW5maWxlLm1hZT4nLCAnLW9tYWUnLCAnPG91dGZpbGUubWFlPic=

> <s_epik_input>
RkMoRikoRiljMVtjSF1bY0hdYyhbY0hdW2NIXTEpQyg9TylbTkhdYzJbY0hdYyhbY0hdYyhbY0hdMilDKD1PKVtPSF0pLWMzW2NIXVtjSF1jKFtjSF1bY0hdMylDKD1PKVtOSDJd

> <s_lp_Force_Field>
S-OPLS

> <s_lp_Variant>
89-1

> <s_m_Source_File>
database-aligned.sdf

> <s_m_Source_Path>
/data/matteo/P2Y14-antagonists-piperidineDerivatives-Wen2023/14052024-optimized-alignment

> <s_m_entry_id>
49

> <s_m_entry_name>
database-aligned.49

> <s_m_job_name>
align_ligands_1

> <s_phase_Alignment_Method>
snapped core

> <s_phase_Alignment_Reason>


> <s_phase_Core_SMARTS>
a1aaaaa1A(=A)Aa2aaaa(a2)-a3aaaaa3

$$$$
91
                    3D
 Schrodinger Suite 2023-2.
 45 47  0  0  1  0            999 V2000
   -4.7406   -0.1951    0.1150 F   0  0  0  0  0  0
   -4.0551   -1.3369    0.1388 C   0  0  0  0  0  0
   -4.3910   -2.0498    1.2127 F   0  0  0  0  0  0
   -4.2947   -2.0374   -0.9685 F   0  0  0  0  0  0
   -2.5902   -1.0214    0.2053 C   0  0  0  0  0  0
   -1.6656   -1.8908   -0.3613 C   0  0  0  0  0  0
   -2.1574    0.1404    0.8334 C   0  0  0  0  0  0
   -0.3083   -1.5984   -0.2997 C   0  0  0  0  0  0
   -0.8000    0.4328    0.8950 C   0  0  0  0  0  0
    0.1245   -0.4366    0.3285 C   0  0  0  0  0  0
    1.5504   -0.1295    0.3932 N   0  0  0  0  0  0
    2.0733    1.0773    0.6118 C   0  0  0  0  0  0
    1.3868    2.0800    0.7856 O   0  0  0  0  0  0
    3.5729    1.0430    0.6162 C   0  0  0  0  0  0
    4.2688   -0.0378   -0.0014 C   0  0  0  0  0  0
    4.3095    2.0826    1.2307 C   0  0  0  0  0  0
    5.6959   -0.0428    0.0147 C   0  0  0  0  0  0
    5.7140    2.0823    1.2549 C   0  0  0  0  0  0
    6.4845   -1.1328   -0.6109 C   0  0  0  0  0  0
    6.3738    1.0063    0.6388 C   0  0  0  0  0  0
    6.4824    3.1926    1.9177 C   0  0  0  0  0  0
    6.8196   -1.0713   -1.9653 C   0  0  0  0  0  0
    6.8885   -2.2318    0.1496 C   0  0  0  0  0  0
    7.7329    3.1460    1.9172 O   0  0  0  0  0  0
    5.8483    4.1301    2.4513 O   0  5  0  0  0  0
    7.5469   -2.1010   -2.5562 C   0  0  0  0  0  0
    7.6134   -3.2639   -0.4389 C   0  0  0  0  0  0
    7.9469   -3.2050   -1.7964 C   0  0  0  0  0  0
    8.7284   -4.3166   -2.4316 C   0  0  0  0  0  0
    9.3637   -4.2284   -3.4782 O   0  0  0  0  0  0
    8.6581   -5.4419   -1.7198 N   0  0  0  0  0  0
   -2.0026   -2.7953   -0.8503 H   0  0  0  0  0  0
   -2.8772    0.8173    1.2745 H   0  0  0  0  0  0
    0.4115   -2.2753   -0.7408 H   0  0  0  0  0  0
   -0.4631    1.3373    1.3840 H   0  0  0  0  0  0
    2.0767   -0.9788    0.2456 H   0  0  0  0  0  0
    3.7109   -0.8328   -0.4751 H   0  0  0  0  0  0
    3.7881    2.9072    1.6955 H   0  0  0  0  0  0
    7.4539    1.0055    0.6650 H   0  0  0  0  0  0
    6.5101   -0.2259   -2.5623 H   0  0  0  0  0  0
    6.6483   -2.2798    1.2017 H   0  0  0  0  0  0
    7.7903   -2.0368   -3.6069 H   0  0  0  0  0  0
    7.9157   -4.1025    0.1714 H   0  0  0  0  0  0
    8.1483   -5.5584   -0.8557 H   0  0  0  0  0  0
    9.1060   -6.3153   -1.9577 H   0  0  0  0  0  0
  1  2  1  0  0  0
  2  3  1  0  0  0
  2  4  1  0  0  0
  2  5  1  0  0  0
  5  6  2  0  0  0
  5  7  1  0  0  0
  6  8  1  0  0  0
  6 32  1  0  0  0
  7  9  2  0  0  0
  7 33  1  0  0  0
  8 10  2  0  0  0
  8 34  1  0  0  0
  9 10  1  0  0  0
  9 35  1  0  0  0
 10 11  1  0  0  0
 11 12  1  0  0  0
 11 36  1  0  0  0
 12 13  2  0  0  0
 12 14  1  0  0  0
 14 15  2  0  0  0
 14 16  1  0  0  0
 15 17  1  0  0  0
 15 37  1  0  0  0
 16 18  2  0  0  0
 16 38  1  0  0  0
 17 19  1  0  0  0
 17 20  2  0  0  0
 18 21  1  0  0  0
 18 20  1  0  0  0
 19 22  2  0  0  0
 19 23  1  0  0  0
 20 39  1  0  0  0
 21 24  2  0  0  0
 21 25  1  0  0  0
 22 26  1  0  0  0
 22 40  1  0  0  0
 23 27  2  0  0  0
 23 41  1  0  0  0
 26 28  2  0  0  0
 26 42  1  0  0  0
 27 28  1  0  0  0
 27 43  1  0  0  0
 28 29  1  0  0  0
 29 30  2  0  0  0
 29 31  1  0  0  0
 31 44  1  0  0  0
 31 45  1  0  0  0
M  CHG  1  25  -1
M  END
> <i_epik_Tot_Q>
-1

> <i_epik_Tot_abs_Q>
1

> <i_lp_mmshare_version>
62121

> <i_m_Source_File_Index>
20

> <i_phase_Input_Structure_Number>
21

> <i_phase_Reference_Structure>
1

> <i_phase_Structure_Number>
21

> <Molecule Name>
91

> <Rotatable Bonds>
6

> <i_f3d_flags>
0

> <b_lp_Chiralities_Consistent>
1

> <r_canvas_IC50_human_P2Y14R,_nM>
6040

> <r_canvas_pIC50>
5.21896306137887

> <r_epik_Charging_Adjusted_Penalty>
0.000782644413097762

> <r_epik_Ionization_Penalty>
  0.0004

> <r_epik_Ionization_Penalty_Charging>
  0.0004

> <r_epik_Ionization_Penalty_Neutral>
  0.0000

> <r_epik_State_Penalty>
  0.0004

> <r_lp_Energy>
43.150007

> <r_phase_Similarity_to_Reference>
0.656919304423101

> <s_canvas_CHEMBLID>
CHEMBL4638909

> <s_canvas_Compound>
29

> <s_canvas_Paper>
Jung2020

> <s_epik_cmdline>
J2VwaWtfcHl0aG9uJywgJy1waCcsICc3LjAnLCAnLXRuJywgJzgnLCAnLW1hJywgJzUwMCcsICctaW1hZScsICc8aW5maWxlLm1hZT4nLCAnLW9tYWUnLCAnPG91dGZpbGUubWFlPic=

> <s_epik_input>
RkMoRikoRiljMVtjSF1bY0hdYyhbY0hdW2NIXTEpW05IXUMoPU8pYzJbY0hdYyhbY0hdYyhbY0hdMilDKD1PKVtPSF0pLWMzW2NIXVtjSF1jKFtjSF1bY0hdMylDKD1PKVtOSDJd

> <s_lp_Force_Field>
S-OPLS

> <s_lp_Variant>
91-1

> <s_m_Source_File>
database-not-aligned-realigned.sdf

> <s_m_Source_Path>
/data/matteo/P2Y14-antagonists-piperidineDerivatives-Wen2023/14052024-optimized-alignment

> <s_m_entry_id>
147

> <s_m_entry_name>
database-not-aligned-realigned.20

> <s_m_job_name>
align_ligands_2

> <s_phase_Alignment_Method>
snapped core

> <s_phase_Alignment_Reason>


> <s_phase_Core_SMARTS>
a1aaaaa1-a2aaaaa2

$$$$
92
                    3D
 Schrodinger Suite 2023-2.
 45 48  0  0  1  0            999 V2000
   -4.7365    1.0216    1.3043 F   0  0  0  0  0  0
   -3.8279    0.0958    0.9955 C   0  0  0  0  0  0
   -3.7801   -0.7908    1.9903 F   0  0  0  0  0  0
   -4.2113   -0.5282   -0.1174 F   0  0  0  0  0  0
   -2.4636    0.7295    0.7688 C   0  0  0  0  0  0
   -1.2787    0.0048    1.0210 C   0  0  0  0  0  0
   -2.3520    2.0458    0.2831 C   0  0  0  0  0  0
    0.0041    0.5726    0.8072 C   0  0  0  0  0  0
   -1.0714    2.5880    0.0797 C   0  0  0  0  0  0
    0.0745    1.8131    0.3572 C   0  0  0  0  0  0
    1.2788    0.0570    0.9868 C   0  0  0  0  0  0
    1.4087    2.1505    0.2272 N   0  0  0  0  0  0
    2.1133    1.0787    0.6116 C   0  0  0  0  0  0
    3.5729    1.0430    0.6162 C   0  0  0  0  0  0
    4.2688   -0.0378   -0.0014 C   0  0  0  0  0  0
    4.3095    2.0826    1.2307 C   0  0  0  0  0  0
    5.6959   -0.0428    0.0147 C   0  0  0  0  0  0
    5.7140    2.0823    1.2549 C   0  0  0  0  0  0
    6.4845   -1.1328   -0.6109 C   0  0  0  0  0  0
    6.3738    1.0063    0.6388 C   0  0  0  0  0  0
    6.4824    3.1926    1.9177 C   0  0  0  0  0  0
    6.8196   -1.0713   -1.9653 C   0  0  0  0  0  0
    6.8885   -2.2318    0.1496 C   0  0  0  0  0  0
    7.7329    3.1460    1.9172 O   0  0  0  0  0  0
    5.8483    4.1301    2.4513 O   0  5  0  0  0  0
    7.5469   -2.1010   -2.5562 C   0  0  0  0  0  0
    7.6134   -3.2639   -0.4389 C   0  0  0  0  0  0
    7.9469   -3.2050   -1.7964 C   0  0  0  0  0  0
    8.7028   -4.3255   -2.4546 C   0  0  0  0  0  0
    8.5417   -4.5942   -3.6438 O   0  0  0  0  0  0
    9.5941   -4.9653   -1.6911 N   0  0  0  0  0  0
   -1.3431   -1.0100    1.3852 H   0  0  0  0  0  0
   -3.2316    2.6340    0.0662 H   0  0  0  0  0  0
   -0.9649    3.5970   -0.2906 H   0  0  0  0  0  0
    1.5433   -0.9277    1.3432 H   0  0  0  0  0  0
    1.8075    3.0229   -0.0888 H   0  0  0  0  0  0
    3.7261   -0.8408   -0.4788 H   0  0  0  0  0  0
    3.7670    2.8932    1.6958 H   0  0  0  0  0  0
    7.4542    0.9792    0.6400 H   0  0  0  0  0  0
    6.5109   -0.2241   -2.5604 H   0  0  0  0  0  0
    6.6314   -2.2876    1.1974 H   0  0  0  0  0  0
    7.7926   -2.0375   -3.6066 H   0  0  0  0  0  0
    7.9007   -4.1104    0.1676 H   0  0  0  0  0  0
    9.7148   -4.6972   -0.7254 H   0  0  0  0  0  0
   10.1469   -5.7124   -2.0859 H   0  0  0  0  0  0
  1  2  1  0  0  0
  2  3  1  0  0  0
  2  4  1  0  0  0
  2  5  1  0  0  0
  5  6  2  0  0  0
  5  7  1  0  0  0
  6  8  1  0  0  0
  6 32  1  0  0  0
  7  9  2  0  0  0
  7 33  1  0  0  0
  8 10  2  0  0  0
  8 11  1  0  0  0
  9 10  1  0  0  0
  9 34  1  0  0  0
 10 12  1  0  0  0
 11 13  2  0  0  0
 11 35  1  0  0  0
 12 13  1  0  0  0
 12 36  1  0  0  0
 13 14  1  0  0  0
 14 15  2  0  0  0
 14 16  1  0  0  0
 15 17  1  0  0  0
 15 37  1  0  0  0
 16 18  2  0  0  0
 16 38  1  0  0  0
 17 19  1  0  0  0
 17 20  2  0  0  0
 18 21  1  0  0  0
 18 20  1  0  0  0
 19 22  2  0  0  0
 19 23  1  0  0  0
 20 39  1  0  0  0
 21 24  2  0  0  0
 21 25  1  0  0  0
 22 26  1  0  0  0
 22 40  1  0  0  0
 23 27  2  0  0  0
 23 41  1  0  0  0
 26 28  2  0  0  0
 26 42  1  0  0  0
 27 28  1  0  0  0
 27 43  1  0  0  0
 28 29  1  0  0  0
 29 30  2  0  0  0
 29 31  1  0  0  0
 31 44  1  0  0  0
 31 45  1  0  0  0
M  CHG  1  25  -1
M  END
> <i_epik_Tot_Q>
-1

> <i_epik_Tot_abs_Q>
1

> <i_lp_mmshare_version>
62121

> <i_m_Source_File_Index>
50

> <i_phase_Input_Structure_Number>
70

> <i_phase_Reference_Structure>
41

> <i_phase_Structure_Number>
70

> <Molecule Name>
92

> <Rotatable Bonds>
5

> <i_f3d_flags>
0

> <b_lp_Chiralities_Consistent>
1

> <r_canvas_IC50_human_P2Y14R,_nM>
2440

> <r_canvas_pIC50>
5.61261017366127

> <r_epik_Charging_Adjusted_Penalty>
0.0011053640678259

> <r_epik_Ionization_Penalty>
  0.0006

> <r_epik_Ionization_Penalty_Charging>
  0.0006

> <r_epik_Ionization_Penalty_Neutral>
  0.0000

> <r_epik_State_Penalty>
  0.0006

> <r_lp_Energy>
39.508681

> <r_phase_Similarity_to_Reference>
0.640596569318289

> <s_canvas_CHEMBLID>
CHEMBL4637158

> <s_canvas_Compound>
30

> <s_canvas_Paper>
Jung2020

> <s_epik_cmdline>
J2VwaWtfcHl0aG9uJywgJy1waCcsICc3LjAnLCAnLXRuJywgJzgnLCAnLW1hJywgJzUwMCcsICctaW1hZScsICc8aW5maWxlLm1hZT4nLCAnLW9tYWUnLCAnPG91dGZpbGUubWFlPic=

> <s_epik_input>
RkMoRikoRiljKFtjSF0xKVtjSF1bY0hdYyhjMTIpW25IXWMoW2NIXTIpLWMzW2NIXWMoW2NIXWMoW2NIXTMpQyg9TylbT0hdKS1jNFtjSF1bY0hdYyhbY0hdW2NIXTQpQyg9TylbTkgyXQ==

> <s_lp_Force_Field>
S-OPLS

> <s_lp_Variant>
92-1

> <s_m_Source_File>
database-aligned.sdf

> <s_m_Source_Path>
/data/matteo/P2Y14-antagonists-piperidineDerivatives-Wen2023/14052024-optimized-alignment

> <s_m_entry_id>
50

> <s_m_entry_name>
database-aligned.50

> <s_m_job_name>
align_ligands_1

> <s_phase_Alignment_Method>
snapped core

> <s_phase_Alignment_Reason>


> <s_phase_Core_SMARTS>
a1aaaa1-a2aaaa(a2)-a3aaaaa3

$$$$
93
                    3D
 Schrodinger Suite 2023-2.
 45 48  0  0  1  0            999 V2000
   -4.7365    1.0216    1.3043 F   0  0  0  0  0  0
   -3.8279    0.0958    0.9955 C   0  0  0  0  0  0
   -3.7801   -0.7908    1.9903 F   0  0  0  0  0  0
   -4.2113   -0.5282   -0.1174 F   0  0  0  0  0  0
   -2.4636    0.7295    0.7688 C   0  0  0  0  0  0
   -1.2787    0.0048    1.0210 C   0  0  0  0  0  0
   -2.3520    2.0458    0.2831 C   0  0  0  0  0  0
    0.0041    0.5726    0.8072 C   0  0  0  0  0  0
   -1.0714    2.5880    0.0797 C   0  0  0  0  0  0
    1.2788    0.0570    0.9868 N   0  0  0  0  0  0
    0.0745    1.8131    0.3572 C   0  0  0  0  0  0
    2.1133    1.0787    0.6116 C   0  0  0  0  0  0
    1.4087    2.1505    0.2272 C   0  0  0  0  0  0
    3.5729    1.0430    0.6162 C   0  0  0  0  0  0
    4.2688   -0.0378   -0.0014 C   0  0  0  0  0  0
    4.3095    2.0826    1.2307 C   0  0  0  0  0  0
    5.6959   -0.0428    0.0147 C   0  0  0  0  0  0
    5.7140    2.0823    1.2549 C   0  0  0  0  0  0
    6.4845   -1.1328   -0.6109 C   0  0  0  0  0  0
    6.3738    1.0063    0.6388 C   0  0  0  0  0  0
    6.4824    3.1926    1.9177 C   0  0  0  0  0  0
    6.8196   -1.0713   -1.9653 C   0  0  0  0  0  0
    6.8885   -2.2318    0.1496 C   0  0  0  0  0  0
    7.7329    3.1460    1.9172 O   0  0  0  0  0  0
    5.8483    4.1301    2.4513 O   0  5  0  0  0  0
    7.5469   -2.1010   -2.5562 C   0  0  0  0  0  0
    7.6134   -3.2639   -0.4389 C   0  0  0  0  0  0
    7.9469   -3.2050   -1.7964 C   0  0  0  0  0  0
    8.7028   -4.3255   -2.4546 C   0  0  0  0  0  0
    8.5417   -4.5942   -3.6438 O   0  0  0  0  0  0
    9.5941   -4.9653   -1.6911 N   0  0  0  0  0  0
   -1.3431   -1.0100    1.3849 H   0  0  0  0  0  0
   -3.2315    2.6346    0.0672 H   0  0  0  0  0  0
   -0.9650    3.5973   -0.2902 H   0  0  0  0  0  0
    1.5624   -0.8523    1.3213 H   0  0  0  0  0  0
    1.7955    3.0979   -0.1191 H   0  0  0  0  0  0
    3.7257   -0.8407   -0.4783 H   0  0  0  0  0  0
    3.7679    2.8938    1.6960 H   0  0  0  0  0  0
    7.4542    0.9794    0.6400 H   0  0  0  0  0  0
    6.5109   -0.2241   -2.5603 H   0  0  0  0  0  0
    6.6309   -2.2878    1.1973 H   0  0  0  0  0  0
    7.7925   -2.0376   -3.6066 H   0  0  0  0  0  0
    7.9003   -4.1106    0.1675 H   0  0  0  0  0  0
    9.7148   -4.6972   -0.7254 H   0  0  0  0  0  0
   10.1469   -5.7124   -2.0859 H   0  0  0  0  0  0
  1  2  1  0  0  0
  2  3  1  0  0  0
  2  4  1  0  0  0
  2  5  1  0  0  0
  5  6  2  0  0  0
  5  7  1  0  0  0
  6  8  1  0  0  0
  6 32  1  0  0  0
  7  9  2  0  0  0
  7 33  1  0  0  0
  8 10  1  0  0  0
  8 11  2  0  0  0
  9 11  1  0  0  0
  9 34  1  0  0  0
 10 12  1  0  0  0
 10 35  1  0  0  0
 11 13  1  0  0  0
 12 14  1  0  0  0
 12 13  2  0  0  0
 13 36  1  0  0  0
 14 15  2  0  0  0
 14 16  1  0  0  0
 15 17  1  0  0  0
 15 37  1  0  0  0
 16 18  2  0  0  0
 16 38  1  0  0  0
 17 19  1  0  0  0
 17 20  2  0  0  0
 18 21  1  0  0  0
 18 20  1  0  0  0
 19 22  2  0  0  0
 19 23  1  0  0  0
 20 39  1  0  0  0
 21 24  2  0  0  0
 21 25  1  0  0  0
 22 26  1  0  0  0
 22 40  1  0  0  0
 23 27  2  0  0  0
 23 41  1  0  0  0
 26 28  2  0  0  0
 26 42  1  0  0  0
 27 28  1  0  0  0
 27 43  1  0  0  0
 28 29  1  0  0  0
 29 30  2  0  0  0
 29 31  1  0  0  0
 31 44  1  0  0  0
 31 45  1  0  0  0
M  CHG  1  25  -1
M  END
> <i_epik_Tot_Q>
-1

> <i_epik_Tot_abs_Q>
1

> <i_lp_mmshare_version>
62121

> <i_m_Source_File_Index>
51

> <i_phase_Input_Structure_Number>
71

> <i_phase_Reference_Structure>
70

> <i_phase_Structure_Number>
71

> <Molecule Name>
93

> <Rotatable Bonds>
5

> <i_f3d_flags>
0

> <b_lp_Chiralities_Consistent>
1

> <r_canvas_IC50_human_P2Y14R,_nM>
2030

> <r_canvas_pIC50>
5.69250396208679

> <r_epik_Charging_Adjusted_Penalty>
0.0011053640678259

> <r_epik_Ionization_Penalty>
  0.0006

> <r_epik_Ionization_Penalty_Charging>
  0.0006

> <r_epik_Ionization_Penalty_Neutral>
  0.0000

> <r_epik_State_Penalty>
  0.0006

> <r_lp_Energy>
39.442028

> <r_phase_Similarity_to_Reference>
0.973711391631432

> <s_canvas_CHEMBLID>
CHEMBL4635586

> <s_canvas_Compound>
31

> <s_canvas_Paper>
Jung2020

> <s_epik_cmdline>
J2VwaWtfcHl0aG9uJywgJy1waCcsICc3LjAnLCAnLXRuJywgJzgnLCAnLW1hJywgJzUwMCcsICctaW1hZScsICc8aW5maWxlLm1hZT4nLCAnLW9tYWUnLCAnPG91dGZpbGUubWFlPic=

> <s_epik_input>
RkMoRikoRiljKFtjSF0xKVtjSF1bY0hdYyhjMTIpW2NIXWMoW25IXTIpLWMzW2NIXWMoW2NIXWMoW2NIXTMpQyg9TylbT0hdKS1jNFtjSF1bY0hdYyhbY0hdW2NIXTQpQyg9TylbTkgyXQ==

> <s_lp_Force_Field>
S-OPLS

> <s_lp_Variant>
93-1

> <s_m_Source_File>
database-aligned.sdf

> <s_m_Source_Path>
/data/matteo/P2Y14-antagonists-piperidineDerivatives-Wen2023/14052024-optimized-alignment

> <s_m_entry_id>
51

> <s_m_entry_name>
database-aligned.51

> <s_m_job_name>
align_ligands_1

> <s_phase_Alignment_Method>
snapped core

> <s_phase_Alignment_Reason>


> <s_phase_Core_SMARTS>
a1aaaa(a12)aa([a]2)-a3aa(aaa3)-a4aaaaa4

$$$$
94
                    3D
 Schrodinger Suite 2023-2.
 44 47  0  0  1  0            999 V2000
   -4.7365    1.0216    1.3043 F   0  0  0  0  0  0
   -3.8279    0.0958    0.9955 C   0  0  0  0  0  0
   -3.7801   -0.7908    1.9903 F   0  0  0  0  0  0
   -4.2113   -0.5282   -0.1174 F   0  0  0  0  0  0
   -2.4636    0.7295    0.7688 C   0  0  0  0  0  0
   -1.2787    0.0048    1.0210 C   0  0  0  0  0  0
   -2.3520    2.0458    0.2831 C   0  0  0  0  0  0
    0.0041    0.5726    0.8072 C   0  0  0  0  0  0
   -1.0714    2.5880    0.0797 C   0  0  0  0  0  0
    1.2788    0.0570    0.9868 N   0  0  0  0  0  0
    0.0745    1.8131    0.3572 C   0  0  0  0  0  0
    2.1133    1.0787    0.6116 C   0  0  0  0  0  0
    1.4087    2.1505    0.2272 N   0  0  0  0  0  0
    3.5729    1.0430    0.6162 C   0  0  0  0  0  0
    4.2688   -0.0378   -0.0014 C   0  0  0  0  0  0
    4.3095    2.0826    1.2307 C   0  0  0  0  0  0
    5.6959   -0.0428    0.0147 C   0  0  0  0  0  0
    5.7140    2.0823    1.2549 C   0  0  0  0  0  0
    6.4845   -1.1328   -0.6109 C   0  0  0  0  0  0
    6.3738    1.0063    0.6388 C   0  0  0  0  0  0
    6.4824    3.1926    1.9177 C   0  0  0  0  0  0
    6.8196   -1.0713   -1.9653 C   0  0  0  0  0  0
    6.8885   -2.2318    0.1496 C   0  0  0  0  0  0
    7.7329    3.1460    1.9172 O   0  0  0  0  0  0
    5.8483    4.1301    2.4513 O   0  5  0  0  0  0
    7.5469   -2.1010   -2.5562 C   0  0  0  0  0  0
    7.6134   -3.2639   -0.4389 C   0  0  0  0  0  0
    7.9469   -3.2050   -1.7964 C   0  0  0  0  0  0
    8.7028   -4.3255   -2.4546 C   0  0  0  0  0  0
    8.5417   -4.5942   -3.6438 O   0  0  0  0  0  0
    9.5941   -4.9653   -1.6911 N   0  0  0  0  0  0
   -1.3411   -1.0101    1.3850 H   0  0  0  0  0  0
   -3.2315    2.6347    0.0674 H   0  0  0  0  0  0
   -0.9655    3.5973   -0.2902 H   0  0  0  0  0  0
    1.8087    3.0219   -0.0891 H   0  0  0  0  0  0
    3.7249   -0.8412   -0.4768 H   0  0  0  0  0  0
    3.7668    2.8924    1.6969 H   0  0  0  0  0  0
    7.4542    0.9789    0.6404 H   0  0  0  0  0  0
    6.5110   -0.2241   -2.5604 H   0  0  0  0  0  0
    6.6307   -2.2880    1.1972 H   0  0  0  0  0  0
    7.7923   -2.0377   -3.6066 H   0  0  0  0  0  0
    7.9000   -4.1107    0.1674 H   0  0  0  0  0  0
    9.7148   -4.6972   -0.7254 H   0  0  0  0  0  0
   10.1469   -5.7124   -2.0859 H   0  0  0  0  0  0
  1  2  1  0  0  0
  2  3  1  0  0  0
  2  4  1  0  0  0
  2  5  1  0  0  0
  5  6  2  0  0  0
  5  7  1  0  0  0
  6  8  1  0  0  0
  6 32  1  0  0  0
  7  9  2  0  0  0
  7 33  1  0  0  0
  8 10  1  0  0  0
  8 11  2  0  0  0
  9 11  1  0  0  0
  9 34  1  0  0  0
 10 12  2  0  0  0
 11 13  1  0  0  0
 12 14  1  0  0  0
 12 13  1  0  0  0
 13 35  1  0  0  0
 14 15  2  0  0  0
 14 16  1  0  0  0
 15 17  1  0  0  0
 15 36  1  0  0  0
 16 18  2  0  0  0
 16 37  1  0  0  0
 17 19  1  0  0  0
 17 20  2  0  0  0
 18 21  1  0  0  0
 18 20  1  0  0  0
 19 22  2  0  0  0
 19 23  1  0  0  0
 20 38  1  0  0  0
 21 24  2  0  0  0
 21 25  1  0  0  0
 22 26  1  0  0  0
 22 39  1  0  0  0
 23 27  2  0  0  0
 23 40  1  0  0  0
 26 28  2  0  0  0
 26 41  1  0  0  0
 27 28  1  0  0  0
 27 42  1  0  0  0
 28 29  1  0  0  0
 29 30  2  0  0  0
 29 31  1  0  0  0
 31 43  1  0  0  0
 31 44  1  0  0  0
M  CHG  1  25  -1
M  END
> <i_epik_Tot_Q>
-1

> <i_epik_Tot_abs_Q>
1

> <i_lp_mmshare_version>
62121

> <i_m_Source_File_Index>
52

> <i_phase_Input_Structure_Number>
72

> <i_phase_Reference_Structure>
70

> <i_phase_Structure_Number>
72

> <Molecule Name>
94

> <Rotatable Bonds>
5

> <i_f3d_flags>
0

> <b_lp_Chiralities_Consistent>
1

> <r_canvas_IC50_human_P2Y14R,_nM>
24400

> <r_canvas_pIC50>
4.61261017366127

> <r_epik_Charging_Adjusted_Penalty>
0.34064088318513

> <r_epik_Ionization_Penalty>
  0.0679

> <r_epik_Ionization_Penalty_Charging>
  0.0004

> <r_epik_Ionization_Penalty_Neutral>
  0.0675

> <r_epik_State_Penalty>
  0.3403

> <r_lp_Energy>
39.463373

> <r_phase_Similarity_to_Reference>
0.960554624726054

> <s_canvas_CHEMBLID>
CHEMBL4633982

> <s_canvas_Compound>
32

> <s_canvas_Paper>
Jung2020

> <s_epik_cmdline>
J2VwaWtfcHl0aG9uJywgJy1waCcsICc3LjAnLCAnLXRuJywgJzgnLCAnLW1hJywgJzUwMCcsICctaW1hZScsICc8aW5maWxlLm1hZT4nLCAnLW9tYWUnLCAnPG91dGZpbGUubWFlPic=

> <s_epik_input>
RkMoRikoRiljKFtjSF0xKVtjSF1bY0hdYyhjMTIpW25IXWMobjIpLWMzW2NIXWMoW2NIXWMoW2NIXTMpQyg9TylbT0hdKS1jNFtjSF1bY0hdYyhbY0hdW2NIXTQpQyg9TylbTkgyXQ==

> <s_lp_Force_Field>
S-OPLS

> <s_lp_Variant>
94-1

> <s_m_Source_File>
database-aligned.sdf

> <s_m_Source_Path>
/data/matteo/P2Y14-antagonists-piperidineDerivatives-Wen2023/14052024-optimized-alignment

> <s_m_entry_id>
52

> <s_m_entry_name>
database-aligned.52

> <s_m_job_name>
align_ligands_1

> <s_phase_Alignment_Method>
snapped core

> <s_phase_Alignment_Reason>


> <s_phase_Core_SMARTS>
a1aaaa(a12)aa([a]2)-a3aa(aaa3)-a4aaaaa4

$$$$
96
                    3D
 Schrodinger Suite 2023-2.
 62 66  0  0  1  0            999 V2000
   -4.8466   -3.4241    1.6134 F   0  0  0  0  0  0
   -5.0120   -2.1173    1.8111 C   0  0  0  0  0  0
   -5.9312   -1.6407    0.9732 F   0  0  0  0  0  0
   -5.3787   -1.8881    3.0709 F   0  0  0  0  0  0
   -3.7102   -1.4192    1.5505 C   0  0  0  0  0  0
   -3.7049   -0.1126    1.0769 C   0  0  0  0  0  0
   -2.5092   -2.0790    1.7828 C   0  0  0  0  0  0
   -2.4987    0.5343    0.8355 C   0  0  0  0  0  0
   -1.3030   -1.4321    1.5414 C   0  0  0  0  0  0
   -1.2977   -0.1255    1.0677 C   0  0  0  0  0  0
    0.0041    0.5726    0.8072 N   0  0  0  0  0  0
    0.0745    1.8131    0.3572 N   0  0  0  0  0  0
    1.2788    0.0570    0.9868 C   0  0  0  0  0  0
    1.4087    2.1505    0.2272 N   0  0  0  0  0  0
    2.1133    1.0787    0.6116 C   0  0  0  0  0  0
    3.5729    1.0430    0.6162 C   0  0  0  0  0  0
    4.2688   -0.0378   -0.0014 C   0  0  0  0  0  0
    4.3095    2.0826    1.2307 C   0  0  0  0  0  0
    5.6959   -0.0428    0.0147 C   0  0  0  0  0  0
    5.7140    2.0823    1.2549 C   0  0  0  0  0  0
    6.4845   -1.1328   -0.6109 C   0  0  0  0  0  0
    6.3738    1.0063    0.6388 C   0  0  0  0  0  0
    6.4824    3.1926    1.9177 C   0  0  0  0  0  0
    6.8196   -1.0713   -1.9653 C   0  0  0  0  0  0
    6.8885   -2.2318    0.1496 C   0  0  0  0  0  0
    7.9118    1.0137    0.6069 C   0  0  0  0  0  0
    7.7329    3.1460    1.9172 O   0  0  0  0  0  0
    5.8483    4.1301    2.4513 O   0  5  0  0  0  0
    7.5469   -2.1010   -2.5562 C   0  0  0  0  0  0
    7.6134   -3.2639   -0.4389 C   0  0  0  0  0  0
    7.9469   -3.2050   -1.7964 C   0  0  0  0  0  0
    8.7323   -4.3448   -2.4511 C   0  0  0  0  0  0
   10.1198   -4.5548   -1.7988 C   0  0  0  0  0  0
    7.9157   -5.6578   -2.4890 C   0  0  0  0  0  0
   10.9018   -5.7110   -2.4500 C   0  0  0  0  0  0
    8.6977   -6.8138   -3.1399 C   0  0  0  0  0  0
   10.0472   -6.9906   -2.4217 N   0  3  0  0  0  0
   -4.6333    0.4102    0.8996 H   0  0  0  0  0  0
   -2.5038   -3.0920    2.1575 H   0  0  0  0  0  0
   -2.5153    1.5501    0.4689 H   0  0  0  0  0  0
   -0.3842   -1.9647    1.7312 H   0  0  0  0  0  0
    1.4910   -0.9377    1.3470 H   0  0  0  0  0  0
    3.7259   -0.8399   -0.4797 H   0  0  0  0  0  0
    3.7647    2.8884    1.7023 H   0  0  0  0  0  0
    6.5108   -0.2235   -2.5596 H   0  0  0  0  0  0
    6.6337   -2.2854    1.1981 H   0  0  0  0  0  0
    8.2945    2.0135    0.4017 H   0  0  0  0  0  0
    8.3622    0.3927   -0.1639 H   0  0  0  0  0  0
    8.3076    0.6814    1.5668 H   0  0  0  0  0  0
    7.7937   -2.0393   -3.6060 H   0  0  0  0  0  0
    7.9110   -4.1097    0.1630 H   0  0  0  0  0  0
    8.9139   -4.0562   -3.4877 H   0  0  0  0  0  0
   10.7037   -3.6359   -1.8644 H   0  0  0  0  0  0
   10.0034   -4.7677   -0.7356 H   0  0  0  0  0  0
    7.6364   -5.9484   -1.4754 H   0  0  0  0  0  0
    6.9820   -5.4988   -3.0299 H   0  0  0  0  0  0
   11.1539   -5.4691   -3.4831 H   0  0  0  0  0  0
   11.8378   -5.8882   -1.9199 H   0  0  0  0  0  0
    8.1305   -7.7429   -3.0799 H   0  0  0  0  0  0
    8.8759   -6.6091   -4.1962 H   0  0  0  0  0  0
   10.5606   -7.7392   -2.8654 H   0  0  0  0  0  0
    9.8715   -7.2415   -1.4594 H   0  0  0  0  0  0
  1  2  1  0  0  0
  2  3  1  0  0  0
  2  4  1  0  0  0
  2  5  1  0  0  0
  5  6  2  0  0  0
  5  7  1  0  0  0
  6  8  1  0  0  0
  6 38  1  0  0  0
  7  9  2  0  0  0
  7 39  1  0  0  0
  8 10  2  0  0  0
  8 40  1  0  0  0
  9 10  1  0  0  0
  9 41  1  0  0  0
 10 11  1  0  0  0
 11 12  1  0  0  0
 11 13  1  0  0  0
 12 14  2  0  0  0
 13 15  2  0  0  0
 13 42  1  0  0  0
 14 15  1  0  0  0
 15 16  1  0  0  0
 16 17  2  0  0  0
 16 18  1  0  0  0
 17 19  1  0  0  0
 17 43  1  0  0  0
 18 20  2  0  0  0
 18 44  1  0  0  0
 19 21  1  0  0  0
 19 22  2  0  0  0
 20 23  1  0  0  0
 20 22  1  0  0  0
 21 24  2  0  0  0
 21 25  1  0  0  0
 22 26  1  0  0  0
 23 27  2  0  0  0
 23 28  1  0  0  0
 24 29  1  0  0  0
 24 45  1  0  0  0
 25 30  2  0  0  0
 25 46  1  0  0  0
 26 47  1  0  0  0
 26 48  1  0  0  0
 26 49  1  0  0  0
 29 31  2  0  0  0
 29 50  1  0  0  0
 30 31  1  0  0  0
 30 51  1  0  0  0
 31 32  1  0  0  0
 32 33  1  0  0  0
 32 34  1  0  0  0
 32 52  1  0  0  0
 33 35  1  0  0  0
 33 53  1  0  0  0
 33 54  1  0  0  0
 34 36  1  0  0  0
 34 55  1  0  0  0
 34 56  1  0  0  0
 35 37  1  0  0  0
 35 57  1  0  0  0
 35 58  1  0  0  0
 36 37  1  0  0  0
 36 59  1  0  0  0
 36 60  1  0  0  0
 37 61  1  0  0  0
 37 62  1  0  0  0
M  CHG  2  28  -1  37   1
M  END
> <i_epik_Tot_Q>
0

> <i_epik_Tot_abs_Q>
2

> <i_lp_mmshare_version>
62121

> <i_m_Source_File_Index>
53

> <i_phase_Input_Structure_Number>
73

> <i_phase_Reference_Structure>
41

> <i_phase_Structure_Number>
73

> <Molecule Name>
96

> <Rotatable Bonds>
6

> <i_f3d_flags>
0

> <b_lp_Chiralities_Consistent>
1

> <r_canvas_IC50_human_P2Y14R,_nM>
11100

> <r_canvas_pIC50>
4.95467702121334

> <r_epik_Charging_Adjusted_Penalty>
0.00133058013759561

> <r_epik_Ionization_Penalty>
  0.0008

> <r_epik_Ionization_Penalty_Charging>
  0.0008

> <r_epik_Ionization_Penalty_Neutral>
  0.0000

> <r_epik_State_Penalty>
  0.0006

> <r_lp_Energy>
65.260015

> <r_lp_tautomer_probability>
1

> <r_phase_Similarity_to_Reference>
0.923282938145429

> <s_canvas_CHEMBLID>
CHEMBL4587611

> <s_canvas_Compound>
34

> <s_canvas_Paper>
Jung2020

> <s_epik_cmdline>
J2VwaWtfcHl0aG9uJywgJy1waCcsICc3LjAnLCAnLXRuJywgJzgnLCAnLW1hJywgJzUwMCcsICctaW1hZScsICc8aW5maWxlLm1hZT4nLCAnLW9tYWUnLCAnPG91dGZpbGUubWFlPic=

> <s_epik_input>
RkMoRikoRiljMVtjSF1bY0hdYyhbY0hdW2NIXTEpLW4ybm5jKFtjSF0yKS1jM1tjSF1jKGMoW0NIM10pYyhbY0hdMylDKD1PKVtPSF0pLWM0W2NIXVtjSF1jKFtjSF1bY0hdNClbQ0hdNVtDSDJdW0NIMl1bTkhdW0NIMl1bQ0gyXTU=

> <s_lp_Force_Field>
S-OPLS

> <s_lp_Variant>
96-1

> <s_m_Source_File>
database-aligned.sdf

> <s_m_Source_Path>
/data/matteo/P2Y14-antagonists-piperidineDerivatives-Wen2023/14052024-optimized-alignment

> <s_m_entry_id>
53

> <s_m_entry_name>
database-aligned.53

> <s_m_job_name>
align_ligands_1

> <s_phase_Alignment_Method>
snapped core

> <s_phase_Alignment_Reason>


> <s_phase_Core_SMARTS>
a1aaaaa1-a2aa(aa2)-a3aaaa(a3)-a4aaa(aa4)A5AA[A]AA5

$$$$
100
                    3D
 Schrodinger Suite 2023-2.
 60 64  0  0  1  0            999 V2000
   -5.0261    1.4324    0.2838 F   0  0  0  0  0  0
   -4.4843    0.5364    1.1094 C   0  0  0  0  0  0
   -4.7261    0.9091    2.3654 F   0  0  0  0  0  0
   -5.0718   -0.6406    0.8904 F   0  0  0  0  0  0
   -2.9805    0.4435    0.8954 C   0  0  0  0  0  0
   -2.2992   -0.7723    1.1122 C   0  0  0  0  0  0
   -2.2454    1.5776    0.4941 C   0  0  0  0  0  0
   -0.9062   -0.8510    0.9207 C   0  0  0  0  0  0
   -0.8521    1.4946    0.3065 C   0  0  0  0  0  0
   -0.1610    0.2796    0.5158 C   0  0  0  0  0  0
    1.3001    0.1930    0.3226 C   0  0  0  0  0  0
    2.1524    1.2383    0.7416 C   0  0  0  0  0  0
    1.8847   -0.9390   -0.2850 C   0  0  0  0  0  0
    3.5501    1.1548    0.5712 C   0  0  0  0  0  0
    3.2777   -1.0307   -0.4622 C   0  0  0  0  0  0
    4.1320    0.0089   -0.0274 C   0  0  0  0  0  0
    4.3632    2.2211    1.0016 C   0  0  0  0  0  0
    5.5422   -0.0679   -0.1843 C   0  0  0  0  0  0
    5.7637    2.1649    0.8405 C   0  0  0  0  0  0
    6.2189   -1.2368   -0.7759 C   0  0  0  0  0  0
    6.3353    1.0178    0.2468 C   0  0  0  0  0  0
    6.6335    3.3065    1.2938 C   0  0  0  0  0  0
    6.9102   -1.1235   -1.9992 C   0  0  0  0  0  0
    6.1956   -2.4906   -0.1313 C   0  0  0  0  0  0
    7.8718    3.2234    1.1339 O   0  0  0  0  0  0
    6.0939    4.3069    1.8173 O   0  5  0  0  0  0
    7.5479   -2.2386   -2.5763 C   0  0  0  0  0  0
    6.8300   -3.6077   -0.7058 C   0  0  0  0  0  0
    7.5223   -3.4998   -1.9335 C   0  0  0  0  0  0
    8.1668   -4.7603   -2.5405 C   0  0  0  0  0  0
    9.1681   -5.4314   -1.5741 C   0  0  0  0  0  0
    9.1677   -4.5137   -3.6951 C   0  0  0  0  0  0
    9.5748   -6.8461   -2.0682 C   0  0  0  0  0  0
    9.5605   -5.8453   -4.3903 C   0  0  0  0  0  0
   10.1128   -6.8814   -3.4645 N   0  0  0  0  0  0
   10.9581   -7.8323   -3.8992 C   0  0  0  0  0  0
   11.3905   -8.7512   -3.2047 O   0  0  0  0  0  0
   -2.8413   -1.6516    1.4275 H   0  0  0  0  0  0
   -2.7464    2.5198    0.3283 H   0  0  0  0  0  0
   -0.4079   -1.7928    1.0982 H   0  0  0  0  0  0
   -0.3136    2.3772   -0.0067 H   0  0  0  0  0  0
    1.7301    2.1155    1.2106 H   0  0  0  0  0  0
    1.2615   -1.7516   -0.6285 H   0  0  0  0  0  0
    3.6724   -1.9146   -0.9396 H   0  0  0  0  0  0
    3.9026    3.0870    1.4554 H   0  0  0  0  0  0
    7.4068    0.9550    0.1218 H   0  0  0  0  0  0
    6.9447   -0.1713   -2.5085 H   0  0  0  0  0  0
    5.6731   -2.6013    0.8078 H   0  0  0  0  0  0
    8.0543   -2.0969   -3.5176 H   0  0  0  0  0  0
    6.7663   -4.5577   -0.1969 H   0  0  0  0  0  0
    7.3721   -5.4460   -2.8381 H   0  0  0  0  0  0
   10.0471   -4.8132   -1.3821 H   0  0  0  0  0  0
    8.7078   -5.5698   -0.5968 H   0  0  0  0  0  0
    8.6887   -3.9128   -4.4671 H   0  0  0  0  0  0
   10.0486   -3.9472   -3.3873 H   0  0  0  0  0  0
   10.3053   -7.2593   -1.3712 H   0  0  0  0  0  0
    8.7078   -7.5069   -2.0295 H   0  0  0  0  0  0
    8.6841   -6.2708   -4.8809 H   0  0  0  0  0  0
   10.2788   -5.6276   -5.1825 H   0  0  0  0  0  0
   11.2209   -7.6841   -4.9578 H   0  0  0  0  0  0
  1  2  1  0  0  0
  2  3  1  0  0  0
  2  4  1  0  0  0
  2  5  1  0  0  0
  5  6  2  0  0  0
  5  7  1  0  0  0
  6  8  1  0  0  0
  6 38  1  0  0  0
  7  9  2  0  0  0
  7 39  1  0  0  0
  8 10  2  0  0  0
  8 40  1  0  0  0
  9 10  1  0  0  0
  9 41  1  0  0  0
 10 11  1  0  0  0
 11 12  2  0  0  0
 11 13  1  0  0  0
 12 14  1  0  0  0
 12 42  1  0  0  0
 13 15  2  0  0  0
 13 43  1  0  0  0
 14 16  1  0  0  0
 14 17  2  0  0  0
 15 16  1  0  0  0
 15 44  1  0  0  0
 16 18  2  0  0  0
 17 19  1  0  0  0
 17 45  1  0  0  0
 18 20  1  0  0  0
 18 21  1  0  0  0
 19 22  1  0  0  0
 19 21  2  0  0  0
 20 23  2  0  0  0
 20 24  1  0  0  0
 21 46  1  0  0  0
 22 25  2  0  0  0
 22 26  1  0  0  0
 23 27  1  0  0  0
 23 47  1  0  0  0
 24 28  2  0  0  0
 24 48  1  0  0  0
 27 29  2  0  0  0
 27 49  1  0  0  0
 28 29  1  0  0  0
 28 50  1  0  0  0
 29 30  1  0  0  0
 30 31  1  0  0  0
 30 32  1  0  0  0
 30 51  1  0  0  0
 31 33  1  0  0  0
 31 52  1  0  0  0
 31 53  1  0  0  0
 32 34  1  0  0  0
 32 54  1  0  0  0
 32 55  1  0  0  0
 33 35  1  0  0  0
 33 56  1  0  0  0
 33 57  1  0  0  0
 34 35  1  0  0  0
 34 58  1  0  0  0
 34 59  1  0  0  0
 35 36  1  0  0  0
 36 37  2  0  0  0
 36 60  1  0  0  0
M  CHG  1  26  -1
M  END
> <i_epik_Tot_Q>
-1

> <i_epik_Tot_abs_Q>
1

> <i_lp_mmshare_version>
62121

> <i_m_Source_File_Index>
54

> <i_phase_Input_Structure_Number>
74

> <i_phase_Reference_Structure>
116

> <i_phase_Structure_Number>
74

> <Molecule Name>
100

> <Rotatable Bonds>
5

> <i_f3d_flags>
0

> <b_lp_Chiralities_Consistent>
1

> <r_canvas_IC50_human_P2Y14R,_nM>
36.6

> <r_canvas_pIC50>
7.43651891460559

> <r_epik_Charging_Adjusted_Penalty>
0.00143519162298062

> <r_epik_Ionization_Penalty>
  0.0007

> <r_epik_Ionization_Penalty_Charging>
  0.0007

> <r_epik_Ionization_Penalty_Neutral>
  0.0000

> <r_epik_State_Penalty>
  0.0007

> <r_lp_Energy>
50.975471

> <r_phase_Similarity_to_Reference>
0.7846757786463

> <s_canvas_CHEMBLID>
CHEMBL4568641

> <s_canvas_Compound>
1c

> <s_canvas_Paper>
Jung2021

> <s_epik_cmdline>
J2VwaWtfcHl0aG9uJywgJy1waCcsICc3LjAnLCAnLXRuJywgJzgnLCAnLW1hJywgJzUwMCcsICctaW1hZScsICc8aW5maWxlLm1hZT4nLCAnLW9tYWUnLCAnPG91dGZpbGUubWFlPic=

> <s_epik_input>
RkMoRikoRiljMVtjSF1bY0hdYyhbY0hdW2NIXTEpLWMoW2NIXTIpW2NIXVtjSF1jKGMyMyljKFtjSF1jKFtjSF0zKUMoPU8pW09IXSktYzRbY0hdW2NIXWMoW2NIXVtjSF00KVtDSF01W0NIMl1bQ0gyXU4oW0NIXT1PKVtDSDJdW0NIMl01

> <s_lp_Force_Field>
S-OPLS

> <s_lp_Variant>
100-1

> <s_m_Source_File>
database-aligned.sdf

> <s_m_Source_Path>
/data/matteo/P2Y14-antagonists-piperidineDerivatives-Wen2023/14052024-optimized-alignment

> <s_m_entry_id>
54

> <s_m_entry_name>
database-aligned.54

> <s_m_job_name>
align_ligands_1

> <s_phase_Alignment_Method>
snapped core

> <s_phase_Alignment_Reason>


> <s_phase_Core_SMARTS>
a1aaaaa1-a(a2)aaa(a23)a(aaa3)-a4aaa(aa4)A5AA[A]AA5

$$$$
101
                    3D
 Schrodinger Suite 2023-2.
 63 67  0  0  1  0            999 V2000
   -5.0261    1.4324    0.2838 F   0  0  0  0  0  0
   -4.4843    0.5364    1.1094 C   0  0  0  0  0  0
   -4.7261    0.9091    2.3654 F   0  0  0  0  0  0
   -5.0718   -0.6406    0.8904 F   0  0  0  0  0  0
   -2.9805    0.4435    0.8954 C   0  0  0  0  0  0
   -2.2992   -0.7723    1.1122 C   0  0  0  0  0  0
   -2.2454    1.5776    0.4941 C   0  0  0  0  0  0
   -0.9062   -0.8510    0.9207 C   0  0  0  0  0  0
   -0.8521    1.4946    0.3065 C   0  0  0  0  0  0
   -0.1610    0.2796    0.5158 C   0  0  0  0  0  0
    1.3001    0.1930    0.3226 C   0  0  0  0  0  0
    2.1524    1.2383    0.7416 C   0  0  0  0  0  0
    1.8847   -0.9390   -0.2850 C   0  0  0  0  0  0
    3.5501    1.1548    0.5712 C   0  0  0  0  0  0
    3.2777   -1.0307   -0.4622 C   0  0  0  0  0  0
    4.1320    0.0089   -0.0274 C   0  0  0  0  0  0
    4.3632    2.2211    1.0016 C   0  0  0  0  0  0
    5.5422   -0.0679   -0.1843 C   0  0  0  0  0  0
    5.7637    2.1649    0.8405 C   0  0  0  0  0  0
    6.2189   -1.2368   -0.7759 C   0  0  0  0  0  0
    6.3353    1.0178    0.2468 C   0  0  0  0  0  0
    6.6335    3.3065    1.2938 C   0  0  0  0  0  0
    6.1956   -2.4906   -0.1313 C   0  0  0  0  0  0
    6.9102   -1.1235   -1.9992 C   0  0  0  0  0  0
    7.8718    3.2234    1.1339 O   0  0  0  0  0  0
    6.0939    4.3069    1.8173 O   0  5  0  0  0  0
    6.8300   -3.6077   -0.7058 C   0  0  0  0  0  0
    7.5479   -2.2386   -2.5763 C   0  0  0  0  0  0
    7.5223   -3.4998   -1.9335 C   0  0  0  0  0  0
    8.1668   -4.7603   -2.5405 C   0  0  0  0  0  0
    9.1681   -5.4314   -1.5741 C   0  0  0  0  0  0
    9.1677   -4.5137   -3.6951 C   0  0  0  0  0  0
    9.5748   -6.8461   -2.0682 C   0  0  0  0  0  0
    9.5605   -5.8453   -4.3903 C   0  0  0  0  0  0
   10.1128   -6.8814   -3.4645 N   0  0  0  0  0  0
   10.9709   -7.8276   -3.9220 C   0  0  0  0  0  0
   11.3420   -7.8540   -5.0973 O   0  0  0  0  0  0
   11.5147   -8.9067   -2.9666 C   0  0  0  0  0  0
   12.3056   -8.3419   -2.0533 F   0  0  0  0  0  0
   10.5084   -9.5475   -2.3702 F   0  0  0  0  0  0
   12.2317   -9.7969   -3.6547 F   0  0  0  0  0  0
   -2.8409   -1.6511    1.4295 H   0  0  0  0  0  0
   -2.7462    2.5201    0.3294 H   0  0  0  0  0  0
   -0.4078   -1.7926    1.0989 H   0  0  0  0  0  0
   -0.3136    2.3771   -0.0068 H   0  0  0  0  0  0
    1.7300    2.1153    1.2107 H   0  0  0  0  0  0
    1.2615   -1.7512   -0.6292 H   0  0  0  0  0  0
    3.6723   -1.9142   -0.9403 H   0  0  0  0  0  0
    3.9023    3.0871    1.4552 H   0  0  0  0  0  0
    7.4070    0.9557    0.1219 H   0  0  0  0  0  0
    5.6731   -2.6014    0.8078 H   0  0  0  0  0  0
    6.9444   -0.1714   -2.5087 H   0  0  0  0  0  0
    6.7663   -4.5578   -0.1969 H   0  0  0  0  0  0
    8.0540   -2.0970   -3.5178 H   0  0  0  0  0  0
    7.3721   -5.4460   -2.8383 H   0  0  0  0  0  0
   10.0472   -4.8132   -1.3824 H   0  0  0  0  0  0
    8.7079   -5.5692   -0.5966 H   0  0  0  0  0  0
    8.6880   -3.9133   -4.4672 H   0  0  0  0  0  0
   10.0484   -3.9466   -3.3879 H   0  0  0  0  0  0
   10.2896   -7.2450   -1.3510 H   0  0  0  0  0  0
    8.7041   -7.5023   -2.0330 H   0  0  0  0  0  0
    8.6848   -6.2713   -4.8819 H   0  0  0  0  0  0
   10.2712   -5.6079   -5.1835 H   0  0  0  0  0  0
  1  2  1  0  0  0
  2  3  1  0  0  0
  2  4  1  0  0  0
  2  5  1  0  0  0
  5  6  2  0  0  0
  5  7  1  0  0  0
  6  8  1  0  0  0
  6 42  1  0  0  0
  7  9  2  0  0  0
  7 43  1  0  0  0
  8 10  2  0  0  0
  8 44  1  0  0  0
  9 10  1  0  0  0
  9 45  1  0  0  0
 10 11  1  0  0  0
 11 12  2  0  0  0
 11 13  1  0  0  0
 12 14  1  0  0  0
 12 46  1  0  0  0
 13 15  2  0  0  0
 13 47  1  0  0  0
 14 16  1  0  0  0
 14 17  2  0  0  0
 15 16  1  0  0  0
 15 48  1  0  0  0
 16 18  2  0  0  0
 17 19  1  0  0  0
 17 49  1  0  0  0
 18 20  1  0  0  0
 18 21  1  0  0  0
 19 22  1  0  0  0
 19 21  2  0  0  0
 20 23  2  0  0  0
 20 24  1  0  0  0
 21 50  1  0  0  0
 22 25  2  0  0  0
 22 26  1  0  0  0
 23 27  1  0  0  0
 23 51  1  0  0  0
 24 28  2  0  0  0
 24 52  1  0  0  0
 27 29  2  0  0  0
 27 53  1  0  0  0
 28 29  1  0  0  0
 28 54  1  0  0  0
 29 30  1  0  0  0
 30 31  1  0  0  0
 30 32  1  0  0  0
 30 55  1  0  0  0
 31 33  1  0  0  0
 31 56  1  0  0  0
 31 57  1  0  0  0
 32 34  1  0  0  0
 32 58  1  0  0  0
 32 59  1  0  0  0
 33 35  1  0  0  0
 33 60  1  0  0  0
 33 61  1  0  0  0
 34 35  1  0  0  0
 34 62  1  0  0  0
 34 63  1  0  0  0
 35 36  1  0  0  0
 36 37  2  0  0  0
 36 38  1  0  0  0
 38 39  1  0  0  0
 38 40  1  0  0  0
 38 41  1  0  0  0
M  CHG  1  26  -1
M  END
> <i_epik_Tot_Q>
-1

> <i_epik_Tot_abs_Q>
1

> <i_lp_mmshare_version>
62121

> <i_m_Source_File_Index>
55

> <i_phase_Input_Structure_Number>
75

> <i_phase_Reference_Structure>
116

> <i_phase_Structure_Number>
75

> <Molecule Name>
101

> <Rotatable Bonds>
6

> <i_f3d_flags>
0

> <b_lp_Chiralities_Consistent>
1

> <r_canvas_IC50_human_P2Y14R,_nM>
240

> <r_canvas_pIC50>
6.61978875828839

> <r_epik_Charging_Adjusted_Penalty>
0.00143519162298062

> <r_epik_Ionization_Penalty>
  0.0007

> <r_epik_Ionization_Penalty_Charging>
  0.0007

> <r_epik_Ionization_Penalty_Neutral>
  0.0000

> <r_epik_State_Penalty>
  0.0007

> <r_lp_Energy>
68.987324

> <r_phase_Similarity_to_Reference>
0.80382326626193

> <s_canvas_CHEMBLID>
CHEMBL4558911

> <s_canvas_Compound>
1d

> <s_canvas_Paper>
Jung2021

> <s_epik_cmdline>
J2VwaWtfcHl0aG9uJywgJy1waCcsICc3LjAnLCAnLXRuJywgJzgnLCAnLW1hJywgJzUwMCcsICctaW1hZScsICc8aW5maWxlLm1hZT4nLCAnLW9tYWUnLCAnPG91dGZpbGUubWFlPic=

> <s_epik_input>
RkMoRikoRiljMVtjSF1bY0hdYyhbY0hdW2NIXTEpLWMoW2NIXTIpW2NIXVtjSF1jKGMyMyljKFtjSF1jKFtjSF0zKUMoPU8pW09IXSktYzRbY0hdW2NIXWMoW2NIXVtjSF00KVtDSF01W0NIMl1bQ0gyXU4oW0NIMl1bQ0gyXTUpQyg9TylDKEYpKEYpRg==

> <s_lp_Force_Field>
S-OPLS

> <s_lp_Variant>
101-1

> <s_m_Source_File>
database-aligned.sdf

> <s_m_Source_Path>
/data/matteo/P2Y14-antagonists-piperidineDerivatives-Wen2023/14052024-optimized-alignment

> <s_m_entry_id>
55

> <s_m_entry_name>
database-aligned.55

> <s_m_job_name>
align_ligands_1

> <s_phase_Alignment_Method>
snapped core

> <s_phase_Alignment_Reason>


> <s_phase_Core_SMARTS>
a1aaaaa1-a(a2)aaa(a23)a(aaa3)-a4aaa(aa4)A5AA[A]AA5

$$$$
103
                    3D
 Schrodinger Suite 2023-2.
 64 68  0  0  1  0            999 V2000
    8.2192    5.0963    1.6002 P   0  0  0  0  0  0
    7.2245    6.1103    2.1315 O   0  0  0  0  0  0
    7.3386    3.8540    0.9967 O   0  0  0  0  0  0
    9.0170    5.6247    0.4247 O   0  5  0  0  0  0
    9.1006    4.5092    2.6856 O   0  5  0  0  0  0
    6.4946    3.1963    1.9240 C   0  0  0  0  0  0
    5.7140    2.0823    1.2549 C   0  0  0  0  0  0
    4.3095    2.0826    1.2307 C   0  0  0  0  0  0
    6.3738    1.0063    0.6388 C   0  0  0  0  0  0
    3.5729    1.0430    0.6162 C   0  0  0  0  0  0
    5.6959   -0.0428    0.0147 C   0  0  0  0  0  0
    2.1133    1.0787    0.6116 N   0  0  0  0  0  0
    4.2688   -0.0378   -0.0014 C   0  0  0  0  0  0
    6.4845   -1.1328   -0.6109 C   0  0  0  0  0  0
    1.4087    2.1505    0.2272 N   0  0  0  0  0  0
    1.2788    0.0570    0.9868 C   0  0  0  0  0  0
    6.8885   -2.2318    0.1496 C   0  0  0  0  0  0
    6.8196   -1.0713   -1.9653 C   0  0  0  0  0  0
    0.0745    1.8131    0.3572 N   0  0  0  0  0  0
    0.0041    0.5726    0.8072 C   0  0  0  0  0  0
    7.6134   -3.2639   -0.4389 C   0  0  0  0  0  0
    7.5469   -2.1010   -2.5562 C   0  0  0  0  0  0
   -1.2977   -0.1255    1.0677 C   0  0  0  0  0  0
    7.9469   -3.2050   -1.7964 C   0  0  0  0  0  0
   -2.4987    0.5343    0.8355 C   0  0  0  0  0  0
   -1.3030   -1.4321    1.5414 C   0  0  0  0  0  0
    8.7323   -4.3448   -2.4511 C   0  0  0  0  0  0
   -3.7049   -0.1126    1.0769 C   0  0  0  0  0  0
   -2.5092   -2.0790    1.7828 C   0  0  0  0  0  0
    7.9157   -5.6578   -2.4890 C   0  0  0  0  0  0
   10.1198   -4.5548   -1.7988 C   0  0  0  0  0  0
   -3.7102   -1.4192    1.5505 C   0  0  0  0  0  0
    8.6977   -6.8138   -3.1399 C   0  0  0  0  0  0
   10.9018   -5.7110   -2.4500 C   0  0  0  0  0  0
   -5.0120   -2.1173    1.8111 C   0  0  0  0  0  0
   10.0472   -6.9906   -2.4217 N   0  3  0  0  0  0
   -4.8466   -3.4241    1.6134 F   0  0  0  0  0  0
   -5.9312   -1.6407    0.9732 F   0  0  0  0  0  0
   -5.3787   -1.8881    3.0709 F   0  0  0  0  0  0
    7.0809    2.7578    2.7328 H   0  0  0  0  0  0
    5.7962    3.9019    2.3759 H   0  0  0  0  0  0
    3.7768    2.8984    1.6977 H   0  0  0  0  0  0
    7.4545    0.9951    0.6488 H   0  0  0  0  0  0
    3.7254   -0.8395   -0.4795 H   0  0  0  0  0  0
    1.6392   -0.9003    1.3325 H   0  0  0  0  0  0
    6.6332   -2.2861    1.1980 H   0  0  0  0  0  0
    6.5114   -0.2233   -2.5597 H   0  0  0  0  0  0
    7.9105   -4.1101    0.1626 H   0  0  0  0  0  0
    7.7941   -2.0396   -3.6060 H   0  0  0  0  0  0
   -2.5153    1.5502    0.4688 H   0  0  0  0  0  0
   -0.3800   -1.9598    1.7289 H   0  0  0  0  0  0
    8.9140   -4.0563   -3.4877 H   0  0  0  0  0  0
   -4.6332    0.4100    0.8990 H   0  0  0  0  0  0
   -2.5037   -3.0924    2.1564 H   0  0  0  0  0  0
    7.6355   -5.9484   -1.4758 H   0  0  0  0  0  0
    6.9827   -5.4985   -3.0309 H   0  0  0  0  0  0
   10.7035   -3.6359   -1.8657 H   0  0  0  0  0  0
   10.0040   -4.7671   -0.7355 H   0  0  0  0  0  0
    8.1305   -7.7429   -3.0812 H   0  0  0  0  0  0
    8.8766   -6.6080   -4.1959 H   0  0  0  0  0  0
   11.1527   -5.4691   -3.4834 H   0  0  0  0  0  0
   11.8384   -5.8879   -1.9209 H   0  0  0  0  0  0
    9.8712   -7.2411   -1.4591 H   0  0  0  0  0  0
   10.5605   -7.7384   -2.8663 H   0  0  0  0  0  0
  1  2  2  0  0  0
  1  3  1  0  0  0
  1  4  1  0  0  0
  1  5  1  0  0  0
  3  6  1  0  0  0
  6  7  1  0  0  0
  6 40  1  0  0  0
  6 41  1  0  0  0
  7  8  2  0  0  0
  7  9  1  0  0  0
  8 10  1  0  0  0
  8 42  1  0  0  0
  9 11  2  0  0  0
  9 43  1  0  0  0
 10 12  1  0  0  0
 10 13  2  0  0  0
 11 14  1  0  0  0
 11 13  1  0  0  0
 12 15  1  0  0  0
 12 16  1  0  0  0
 13 44  1  0  0  0
 14 17  2  0  0  0
 14 18  1  0  0  0
 15 19  2  0  0  0
 16 20  2  0  0  0
 16 45  1  0  0  0
 17 21  1  0  0  0
 17 46  1  0  0  0
 18 22  2  0  0  0
 18 47  1  0  0  0
 19 20  1  0  0  0
 20 23  1  0  0  0
 21 24  2  0  0  0
 21 48  1  0  0  0
 22 24  1  0  0  0
 22 49  1  0  0  0
 23 25  2  0  0  0
 23 26  1  0  0  0
 24 27  1  0  0  0
 25 28  1  0  0  0
 25 50  1  0  0  0
 26 29  2  0  0  0
 26 51  1  0  0  0
 27 30  1  0  0  0
 27 31  1  0  0  0
 27 52  1  0  0  0
 28 32  2  0  0  0
 28 53  1  0  0  0
 29 32  1  0  0  0
 29 54  1  0  0  0
 30 33  1  0  0  0
 30 55  1  0  0  0
 30 56  1  0  0  0
 31 34  1  0  0  0
 31 57  1  0  0  0
 31 58  1  0  0  0
 32 35  1  0  0  0
 33 36  1  0  0  0
 33 59  1  0  0  0
 33 60  1  0  0  0
 34 36  1  0  0  0
 34 61  1  0  0  0
 34 62  1  0  0  0
 35 37  1  0  0  0
 35 38  1  0  0  0
 35 39  1  0  0  0
 36 63  1  0  0  0
 36 64  1  0  0  0
M  CHG  3   4  -1   5  -1  36   1
M  END
> <i_epik_Tot_Q>
-1

> <i_epik_Tot_abs_Q>
3

> <i_lp_mmshare_version>
62121

> <i_m_Source_File_Index>
56

> <i_phase_Input_Structure_Number>
76

> <i_phase_Reference_Structure>
41

> <i_phase_Structure_Number>
76

> <Molecule Name>
103

> <Rotatable Bonds>
8

> <i_f3d_flags>
0

> <b_lp_Chiralities_Consistent>
1

> <r_canvas_IC50_human_P2Y14R,_nM>
60500

> <r_canvas_pIC50>
4.21824462534753

> <r_epik_Charging_Adjusted_Penalty>
0.221643002503518

> <r_epik_Ionization_Penalty>
  0.1111

> <r_epik_Ionization_Penalty_Charging>
  0.1111

> <r_epik_Ionization_Penalty_Neutral>
  0.0000

> <r_epik_State_Penalty>
  0.1105

> <r_lp_Energy>
42.602001

> <r_lp_tautomer_probability>
1

> <r_phase_Similarity_to_Reference>
0.934881248276018

> <s_canvas_CHEMBLID>
CHEMBL4554777

> <s_canvas_Compound>
3b

> <s_canvas_Paper>
Jung2021

> <s_epik_cmdline>
J2VwaWtfcHl0aG9uJywgJy1waCcsICc3LjAnLCAnLXRuJywgJzgnLCAnLW1hJywgJzUwMCcsICctaW1hZScsICc8aW5maWxlLm1hZT4nLCAnLW9tYWUnLCAnPG91dGZpbGUubWFlPic=

> <s_epik_input>
W2NIXTFbY0hdYyhDKEYpKEYpRilbY0hdW2NIXWMxLWMoW2NIXTIpbm5uMi1jKFtjSF1jM1tDSDJdT1AoPU8pKFtPSF0pW09IXSlbY0hdYyhbY0hdMyktYzRbY0hdW2NIXWMoW2NIXVtjSF00KVtDSF01W0NIMl1bQ0gyXVtOSF1bQ0gyXVtDSDJdNQ==

> <s_lp_Force_Field>
S-OPLS

> <s_lp_Variant>
103-1

> <s_m_Source_File>
database-aligned.sdf

> <s_m_Source_Path>
/data/matteo/P2Y14-antagonists-piperidineDerivatives-Wen2023/14052024-optimized-alignment

> <s_m_entry_id>
56

> <s_m_entry_name>
database-aligned.56

> <s_m_job_name>
align_ligands_1

> <s_phase_Alignment_Method>
snapped core

> <s_phase_Alignment_Reason>


> <s_phase_Core_SMARTS>
a1aaaaa1-a2aa(aa2)-a3aaaa(a3)-a4aaa(aa4)A5AA[A]AA5

$$$$
107
                    3D
 Schrodinger Suite 2023-2.
 45 48  0  0  1  0            999 V2000
   -4.8466   -3.4241    1.6134 F   0  0  0  0  0  0
   -5.0120   -2.1173    1.8111 C   0  0  0  0  0  0
   -5.9312   -1.6407    0.9732 F   0  0  0  0  0  0
   -5.3787   -1.8881    3.0709 F   0  0  0  0  0  0
   -3.7102   -1.4192    1.5505 C   0  0  0  0  0  0
   -3.7049   -0.1126    1.0769 C   0  0  0  0  0  0
   -2.5092   -2.0790    1.7828 C   0  0  0  0  0  0
   -2.4987    0.5343    0.8355 C   0  0  0  0  0  0
   -1.3030   -1.4321    1.5414 C   0  0  0  0  0  0
   -1.2977   -0.1255    1.0677 C   0  0  0  0  0  0
    0.0041    0.5726    0.8072 C   0  0  0  0  0  0
    0.0745    1.8131    0.3572 N   0  0  0  0  0  0
    1.2788    0.0570    0.9868 C   0  0  0  0  0  0
    1.4087    2.1505    0.2272 N   0  0  0  0  0  0
    2.1133    1.0787    0.6116 N   0  0  0  0  0  0
    3.5729    1.0430    0.6162 C   0  0  0  0  0  0
    4.2688   -0.0378   -0.0014 C   0  0  0  0  0  0
    4.3095    2.0826    1.2307 C   0  0  0  0  0  0
    5.6959   -0.0428    0.0147 C   0  0  0  0  0  0
    5.7140    2.0823    1.2549 C   0  0  0  0  0  0
    6.4845   -1.1328   -0.6109 C   0  0  0  0  0  0
    6.3738    1.0063    0.6388 C   0  0  0  0  0  0
    6.4824    3.1926    1.9177 C   0  0  0  0  0  0
    6.8196   -1.0713   -1.9653 C   0  0  0  0  0  0
    6.8885   -2.2318    0.1496 C   0  0  0  0  0  0
    7.7329    3.1460    1.9172 O   0  0  0  0  0  0
    5.8483    4.1301    2.4513 O   0  5  0  0  0  0
    7.5469   -2.1010   -2.5562 C   0  0  0  0  0  0
    7.6134   -3.2639   -0.4389 C   0  0  0  0  0  0
    7.9469   -3.2050   -1.7964 C   0  0  0  0  0  0
    8.6715   -4.2388   -2.3869 N   0  0  0  0  0  0
   -4.6331    0.4104    0.9001 H   0  0  0  0  0  0
   -2.5036   -3.0919    2.1575 H   0  0  0  0  0  0
   -2.5152    1.5502    0.4692 H   0  0  0  0  0  0
   -0.3799   -1.9596    1.7291 H   0  0  0  0  0  0
    1.6403   -0.9001    1.3329 H   0  0  0  0  0  0
    3.7255   -0.8396   -0.4797 H   0  0  0  0  0  0
    3.7662    2.8932    1.6947 H   0  0  0  0  0  0
    7.4542    0.9796    0.6404 H   0  0  0  0  0  0
    6.5115   -0.2239   -2.5603 H   0  0  0  0  0  0
    6.6342   -2.2865    1.1981 H   0  0  0  0  0  0
    7.7981   -2.0420   -3.6053 H   0  0  0  0  0  0
    7.9171   -4.1102    0.1600 H   0  0  0  0  0  0
    8.9742   -5.0421   -1.8548 H   0  0  0  0  0  0
    8.9264   -4.2138   -3.3638 H   0  0  0  0  0  0
  1  2  1  0  0  0
  2  3  1  0  0  0
  2  4  1  0  0  0
  2  5  1  0  0  0
  5  6  2  0  0  0
  5  7  1  0  0  0
  6  8  1  0  0  0
  6 32  1  0  0  0
  7  9  2  0  0  0
  7 33  1  0  0  0
  8 10  2  0  0  0
  8 34  1  0  0  0
  9 10  1  0  0  0
  9 35  1  0  0  0
 10 11  1  0  0  0
 11 12  1  0  0  0
 11 13  2  0  0  0
 12 14  2  0  0  0
 13 15  1  0  0  0
 13 36  1  0  0  0
 14 15  1  0  0  0
 15 16  1  0  0  0
 16 17  2  0  0  0
 16 18  1  0  0  0
 17 19  1  0  0  0
 17 37  1  0  0  0
 18 20  2  0  0  0
 18 38  1  0  0  0
 19 21  1  0  0  0
 19 22  2  0  0  0
 20 23  1  0  0  0
 20 22  1  0  0  0
 21 24  2  0  0  0
 21 25  1  0  0  0
 22 39  1  0  0  0
 23 26  2  0  0  0
 23 27  1  0  0  0
 24 28  1  0  0  0
 24 40  1  0  0  0
 25 29  2  0  0  0
 25 41  1  0  0  0
 28 30  2  0  0  0
 28 42  1  0  0  0
 29 30  1  0  0  0
 29 43  1  0  0  0
 30 31  1  0  0  0
 31 44  1  0  0  0
 31 45  1  0  0  0
M  CHG  1  27  -1
M  END
> <i_epik_Tot_Q>
-1

> <i_epik_Tot_abs_Q>
1

> <i_lp_mmshare_version>
62121

> <i_m_Source_File_Index>
57

> <i_phase_Input_Structure_Number>
77

> <i_phase_Reference_Structure>
41

> <i_phase_Structure_Number>
77

> <Molecule Name>
107

> <Rotatable Bonds>
5

> <i_f3d_flags>
0

> <b_lp_Chiralities_Consistent>
1

> <r_canvas_IC50_human_P2Y14R,_nM>
1480

> <r_canvas_pIC50>
5.82973828460504

> <r_epik_Charging_Adjusted_Penalty>
0.00205651664060042

> <r_epik_Ionization_Penalty>
  0.0021

> <r_epik_Ionization_Penalty_Charging>
  0.0002

> <r_epik_Ionization_Penalty_Neutral>
  0.0018

> <r_epik_State_Penalty>
  0.0018

> <r_lp_Energy>
41.076669

> <r_lp_tautomer_probability>
1

> <r_phase_Similarity_to_Reference>
0.760519353369276

> <s_canvas_CHEMBLID>
CHEMBL4472517

> <s_canvas_Compound>
7

> <s_canvas_Paper>
Jung2021

> <s_epik_cmdline>
J2VwaWtfcHl0aG9uJywgJy1waCcsICc3LjAnLCAnLXRuJywgJzgnLCAnLW1hJywgJzUwMCcsICctaW1hZScsICc8aW5maWxlLm1hZT4nLCAnLW9tYWUnLCAnPG91dGZpbGUubWFlPic=

> <s_epik_input>
RkMoRikoRiljMVtjSF1bY0hdYyhbY0hdW2NIXTEpLWMybm5uKFtjSF0yKS1jM1tjSF1jKFtjSF1jKFtjSF0zKUMoPU8pW09IXSktYzRbY0hdW2NIXWMoW05IMl0pW2NIXVtjSF00

> <s_lp_Force_Field>
S-OPLS

> <s_lp_Variant>
107-1

> <s_m_Source_File>
database-aligned.sdf

> <s_m_Source_Path>
/data/matteo/P2Y14-antagonists-piperidineDerivatives-Wen2023/14052024-optimized-alignment

> <s_m_entry_id>
57

> <s_m_entry_name>
database-aligned.57

> <s_m_job_name>
align_ligands_1

> <s_phase_Alignment_Method>
snapped core

> <s_phase_Alignment_Reason>


> <s_phase_Core_SMARTS>
a1aaaaa1-a2aa(aa2)-a3aaaa(a3)-a4aaaaa4

$$$$
108
                    3D
 Schrodinger Suite 2023-2.
 50 53  0  0  1  0            999 V2000
   -4.8466   -3.4241    1.6134 F   0  0  0  0  0  0
   -5.0120   -2.1173    1.8111 C   0  0  0  0  0  0
   -5.9312   -1.6407    0.9732 F   0  0  0  0  0  0
   -5.3787   -1.8881    3.0709 F   0  0  0  0  0  0
   -3.7102   -1.4192    1.5505 C   0  0  0  0  0  0
   -3.7049   -0.1126    1.0769 C   0  0  0  0  0  0
   -2.5092   -2.0790    1.7828 C   0  0  0  0  0  0
   -2.4987    0.5343    0.8355 C   0  0  0  0  0  0
   -1.3030   -1.4321    1.5414 C   0  0  0  0  0  0
   -1.2977   -0.1255    1.0677 C   0  0  0  0  0  0
    0.0041    0.5726    0.8072 C   0  0  0  0  0  0
    0.0745    1.8131    0.3572 N   0  0  0  0  0  0
    1.2788    0.0570    0.9868 C   0  0  0  0  0  0
    1.4087    2.1505    0.2272 N   0  0  0  0  0  0
    2.1133    1.0787    0.6116 N   0  0  0  0  0  0
    3.5729    1.0430    0.6162 C   0  0  0  0  0  0
    4.2688   -0.0378   -0.0014 C   0  0  0  0  0  0
    4.3095    2.0826    1.2307 C   0  0  0  0  0  0
    5.6959   -0.0428    0.0147 C   0  0  0  0  0  0
    5.7140    2.0823    1.2549 C   0  0  0  0  0  0
    6.4845   -1.1328   -0.6109 C   0  0  0  0  0  0
    6.3738    1.0063    0.6388 C   0  0  0  0  0  0
    6.4824    3.1926    1.9177 C   0  0  0  0  0  0
    6.8196   -1.0713   -1.9653 C   0  0  0  0  0  0
    6.8885   -2.2318    0.1496 C   0  0  0  0  0  0
    7.7329    3.1460    1.9172 O   0  0  0  0  0  0
    5.8483    4.1301    2.4513 O   0  5  0  0  0  0
    7.5469   -2.1010   -2.5562 C   0  0  0  0  0  0
    7.6134   -3.2639   -0.4389 C   0  0  0  0  0  0
    7.9469   -3.2050   -1.7964 C   0  0  0  0  0  0
    8.6531   -4.2380   -2.4712 N   0  0  0  0  0  0
    9.5288   -5.1255   -1.9633 C   0  0  0  0  0  0
    9.8946   -5.1593   -0.7891 O   0  0  0  0  0  0
   10.1097   -6.1321   -2.9519 C   0  0  0  0  0  0
   -4.6331    0.4107    0.9006 H   0  0  0  0  0  0
   -2.5036   -3.0918    2.1580 H   0  0  0  0  0  0
   -2.5153    1.5504    0.4694 H   0  0  0  0  0  0
   -0.3799   -1.9595    1.7293 H   0  0  0  0  0  0
    1.6400   -0.8999    1.3330 H   0  0  0  0  0  0
    3.7255   -0.8400   -0.4791 H   0  0  0  0  0  0
    3.7661    2.8933    1.6946 H   0  0  0  0  0  0
    7.4543    0.9795    0.6403 H   0  0  0  0  0  0
    6.5107   -0.2241   -2.5603 H   0  0  0  0  0  0
    6.6298   -2.2891    1.1970 H   0  0  0  0  0  0
    7.7932   -2.0437   -3.6066 H   0  0  0  0  0  0
    7.8847   -4.1107    0.1724 H   0  0  0  0  0  0
    8.5256   -4.2671   -3.4725 H   0  0  0  0  0  0
    9.8134   -5.9077   -3.9773 H   0  0  0  0  0  0
    9.7646   -7.1372   -2.7085 H   0  0  0  0  0  0
   11.1988   -6.1232   -2.9031 H   0  0  0  0  0  0
  1  2  1  0  0  0
  2  3  1  0  0  0
  2  4  1  0  0  0
  2  5  1  0  0  0
  5  6  2  0  0  0
  5  7  1  0  0  0
  6  8  1  0  0  0
  6 35  1  0  0  0
  7  9  2  0  0  0
  7 36  1  0  0  0
  8 10  2  0  0  0
  8 37  1  0  0  0
  9 10  1  0  0  0
  9 38  1  0  0  0
 10 11  1  0  0  0
 11 12  1  0  0  0
 11 13  2  0  0  0
 12 14  2  0  0  0
 13 15  1  0  0  0
 13 39  1  0  0  0
 14 15  1  0  0  0
 15 16  1  0  0  0
 16 17  2  0  0  0
 16 18  1  0  0  0
 17 19  1  0  0  0
 17 40  1  0  0  0
 18 20  2  0  0  0
 18 41  1  0  0  0
 19 21  1  0  0  0
 19 22  2  0  0  0
 20 23  1  0  0  0
 20 22  1  0  0  0
 21 24  2  0  0  0
 21 25  1  0  0  0
 22 42  1  0  0  0
 23 26  2  0  0  0
 23 27  1  0  0  0
 24 28  1  0  0  0
 24 43  1  0  0  0
 25 29  2  0  0  0
 25 44  1  0  0  0
 28 30  2  0  0  0
 28 45  1  0  0  0
 29 30  1  0  0  0
 29 46  1  0  0  0
 30 31  1  0  0  0
 31 32  1  0  0  0
 31 47  1  0  0  0
 32 33  2  0  0  0
 32 34  1  0  0  0
 34 48  1  0  0  0
 34 49  1  0  0  0
 34 50  1  0  0  0
M  CHG  1  27  -1
M  END
> <i_epik_Tot_Q>
-1

> <i_epik_Tot_abs_Q>
1

> <i_lp_mmshare_version>
62121

> <i_m_Source_File_Index>
58

> <i_phase_Input_Structure_Number>
78

> <i_phase_Reference_Structure>
41

> <i_phase_Structure_Number>
78

> <Molecule Name>
108

> <Rotatable Bonds>
6

> <i_f3d_flags>
0

> <b_lp_Chiralities_Consistent>
1

> <r_canvas_IC50_human_P2Y14R,_nM>
811

> <r_canvas_pIC50>
6.09097914578884

> <r_epik_Charging_Adjusted_Penalty>
0.000166961650298847

> <r_epik_Ionization_Penalty>
  0.0002

> <r_epik_Ionization_Penalty_Charging>
  0.0002

> <r_epik_Ionization_Penalty_Neutral>
  0.0000

> <r_epik_State_Penalty>
  0.0000

> <r_lp_Energy>
45.769942

> <r_lp_tautomer_probability>
1

> <r_phase_Similarity_to_Reference>
0.811748951848053

> <s_canvas_CHEMBLID>
CHEMBL4465763

> <s_canvas_Compound>
8

> <s_canvas_Paper>
Jung2021

> <s_epik_cmdline>
J2VwaWtfcHl0aG9uJywgJy1waCcsICc3LjAnLCAnLXRuJywgJzgnLCAnLW1hJywgJzUwMCcsICctaW1hZScsICc8aW5maWxlLm1hZT4nLCAnLW9tYWUnLCAnPG91dGZpbGUubWFlPic=

> <s_epik_input>
RkMoRikoRiljMVtjSF1bY0hdYyhbY0hdW2NIXTEpLWMybm5uKFtjSF0yKS1jM1tjSF1jKFtjSF1jKFtjSF0zKUMoPU8pW09IXSktYzRbY0hdW2NIXWMoW2NIXVtjSF00KVtOSF1DKD1PKVtDSDNd

> <s_lp_Force_Field>
S-OPLS

> <s_lp_Variant>
108-1

> <s_m_Source_File>
database-aligned.sdf

> <s_m_Source_Path>
/data/matteo/P2Y14-antagonists-piperidineDerivatives-Wen2023/14052024-optimized-alignment

> <s_m_entry_id>
58

> <s_m_entry_name>
database-aligned.58

> <s_m_job_name>
align_ligands_1

> <s_phase_Alignment_Method>
snapped core

> <s_phase_Alignment_Reason>


> <s_phase_Core_SMARTS>
a1aaaaa1-a2aa(aa2)-a3aaaa(a3)-a4aaaaa4

$$$$
109
                    3D
 Schrodinger Suite 2023-2.
 57 61  0  0  1  0            999 V2000
   -4.8466   -3.4241    1.6134 F   0  0  0  0  0  0
   -5.0120   -2.1173    1.8111 C   0  0  0  0  0  0
   -5.9312   -1.6407    0.9732 F   0  0  0  0  0  0
   -5.3787   -1.8881    3.0709 F   0  0  0  0  0  0
   -3.7102   -1.4192    1.5505 C   0  0  0  0  0  0
   -2.5092   -2.0790    1.7828 C   0  0  0  0  0  0
   -3.7049   -0.1126    1.0769 C   0  0  0  0  0  0
   -1.3030   -1.4321    1.5414 C   0  0  0  0  0  0
   -2.4987    0.5343    0.8355 C   0  0  0  0  0  0
   -1.2977   -0.1255    1.0677 C   0  0  0  0  0  0
    0.0041    0.5726    0.8072 C   0  0  0  0  0  0
    0.0745    1.8131    0.3572 N   0  0  0  0  0  0
    1.2788    0.0570    0.9868 C   0  0  0  0  0  0
    1.4087    2.1505    0.2272 N   0  0  0  0  0  0
    2.1133    1.0787    0.6116 N   0  0  0  0  0  0
    3.5729    1.0430    0.6162 C   0  0  0  0  0  0
    4.2688   -0.0378   -0.0014 C   0  0  0  0  0  0
    4.3095    2.0826    1.2307 C   0  0  0  0  0  0
    5.6959   -0.0428    0.0147 C   0  0  0  0  0  0
    5.7140    2.0823    1.2549 C   0  0  0  0  0  0
    6.4845   -1.1328   -0.6109 C   0  0  0  0  0  0
    6.3738    1.0063    0.6388 C   0  0  0  0  0  0
    6.4824    3.1926    1.9177 C   0  0  0  0  0  0
    6.8196   -1.0713   -1.9653 C   0  0  0  0  0  0
    6.8885   -2.2318    0.1496 C   0  0  0  0  0  0
    7.7329    3.1460    1.9172 O   0  0  0  0  0  0
    5.8483    4.1301    2.4513 O   0  5  0  0  0  0
    7.5469   -2.1010   -2.5562 C   0  0  0  0  0  0
    7.6134   -3.2639   -0.4389 C   0  0  0  0  0  0
    7.9469   -3.2050   -1.7964 C   0  0  0  0  0  0
    8.6647   -4.2240   -2.4808 N   0  0  0  0  0  0
    9.4510   -5.1980   -1.9818 C   0  0  0  0  0  0
    9.7512   -5.3225   -0.7944 O   0  0  0  0  0  0
   10.0543   -6.1097   -3.0141 C   0  0  0  0  0  0
   11.3292   -6.6791   -2.7937 C   0  0  0  0  0  0
    9.3495   -6.4420   -4.1961 C   0  0  0  0  0  0
   11.8982   -7.5487   -3.7443 C   0  0  0  0  0  0
    9.9203   -7.3105   -5.1472 C   0  0  0  0  0  0
   11.1953   -7.8628   -4.9226 C   0  0  0  0  0  0
   -2.5034   -3.0923    2.1565 H   0  0  0  0  0  0
   -4.6330    0.4104    0.8991 H   0  0  0  0  0  0
   -0.3799   -1.9597    1.7289 H   0  0  0  0  0  0
   -2.5153    1.5502    0.4690 H   0  0  0  0  0  0
    1.6400   -0.8999    1.3331 H   0  0  0  0  0  0
    3.7254   -0.8404   -0.4783 H   0  0  0  0  0  0
    3.7661    2.8932    1.6949 H   0  0  0  0  0  0
    7.4543    0.9796    0.6406 H   0  0  0  0  0  0
    6.5112   -0.2238   -2.5602 H   0  0  0  0  0  0
    6.6308   -2.2885    1.1972 H   0  0  0  0  0  0
    7.7948   -2.0422   -3.6062 H   0  0  0  0  0  0
    7.8854   -4.1071    0.1764 H   0  0  0  0  0  0
    8.6079   -4.1858   -3.4881 H   0  0  0  0  0  0
   11.8835   -6.4491   -1.8951 H   0  0  0  0  0  0
    8.3650   -6.0390   -4.3852 H   0  0  0  0  0  0
   12.8746   -7.9759   -3.5686 H   0  0  0  0  0  0
    9.3775   -7.5559   -6.0481 H   0  0  0  0  0  0
   11.6317   -8.5298   -5.6513 H   0  0  0  0  0  0
  1  2  1  0  0  0
  2  3  1  0  0  0
  2  4  1  0  0  0
  2  5  1  0  0  0
  5  6  2  0  0  0
  5  7  1  0  0  0
  6  8  1  0  0  0
  6 40  1  0  0  0
  7  9  2  0  0  0
  7 41  1  0  0  0
  8 10  2  0  0  0
  8 42  1  0  0  0
  9 10  1  0  0  0
  9 43  1  0  0  0
 10 11  1  0  0  0
 11 12  1  0  0  0
 11 13  2  0  0  0
 12 14  2  0  0  0
 13 15  1  0  0  0
 13 44  1  0  0  0
 14 15  1  0  0  0
 15 16  1  0  0  0
 16 17  2  0  0  0
 16 18  1  0  0  0
 17 19  1  0  0  0
 17 45  1  0  0  0
 18 20  2  0  0  0
 18 46  1  0  0  0
 19 21  1  0  0  0
 19 22  2  0  0  0
 20 23  1  0  0  0
 20 22  1  0  0  0
 21 24  2  0  0  0
 21 25  1  0  0  0
 22 47  1  0  0  0
 23 26  2  0  0  0
 23 27  1  0  0  0
 24 28  1  0  0  0
 24 48  1  0  0  0
 25 29  2  0  0  0
 25 49  1  0  0  0
 28 30  2  0  0  0
 28 50  1  0  0  0
 29 30  1  0  0  0
 29 51  1  0  0  0
 30 31  1  0  0  0
 31 32  1  0  0  0
 31 52  1  0  0  0
 32 33  2  0  0  0
 32 34  1  0  0  0
 34 35  2  0  0  0
 34 36  1  0  0  0
 35 37  1  0  0  0
 35 53  1  0  0  0
 36 38  2  0  0  0
 36 54  1  0  0  0
 37 39  2  0  0  0
 37 55  1  0  0  0
 38 39  1  0  0  0
 38 56  1  0  0  0
 39 57  1  0  0  0
M  CHG  1  27  -1
M  END
> <i_epik_Tot_Q>
-1

> <i_epik_Tot_abs_Q>
1

> <i_lp_mmshare_version>
62121

> <i_m_Source_File_Index>
59

> <i_phase_Input_Structure_Number>
79

> <i_phase_Reference_Structure>
41

> <i_phase_Structure_Number>
79

> <Molecule Name>
109

> <Rotatable Bonds>
7

> <i_f3d_flags>
0

> <b_lp_Chiralities_Consistent>
1

> <r_canvas_IC50_human_P2Y14R,_nM>
1860

> <r_canvas_pIC50>
5.73048705578208

> <r_epik_Charging_Adjusted_Penalty>
0.000166961650298847

> <r_epik_Ionization_Penalty>
  0.0002

> <r_epik_Ionization_Penalty_Charging>
  0.0002

> <r_epik_Ionization_Penalty_Neutral>
  0.0000

> <r_epik_State_Penalty>
  0.0000

> <r_lp_Energy>
59.958182

> <r_lp_tautomer_probability>
1

> <r_phase_Similarity_to_Reference>
0.83003650561761

> <s_canvas_CHEMBLID>
CHEMBL4462380

> <s_canvas_Compound>
9

> <s_canvas_Paper>
Jung2021

> <s_epik_cmdline>
J2VwaWtfcHl0aG9uJywgJy1waCcsICc3LjAnLCAnLXRuJywgJzgnLCAnLW1hJywgJzUwMCcsICctaW1hZScsICc8aW5maWxlLm1hZT4nLCAnLW9tYWUnLCAnPG91dGZpbGUubWFlPic=

> <s_epik_input>
RkMoRikoRiljMVtjSF1bY0hdYyhbY0hdW2NIXTEpLWMybm5uKFtjSF0yKS1jM1tjSF1jKFtjSF1jKFtjSF0zKUMoPU8pW09IXSktYzRbY0hdW2NIXWMoW2NIXVtjSF00KVtOSF1DKD1PKWM1W2NIXVtjSF1bY0hdW2NIXVtjSF01

> <s_lp_Force_Field>
S-OPLS

> <s_lp_Variant>
109-1

> <s_m_Source_File>
database-aligned.sdf

> <s_m_Source_Path>
/data/matteo/P2Y14-antagonists-piperidineDerivatives-Wen2023/14052024-optimized-alignment

> <s_m_entry_id>
59

> <s_m_entry_name>
database-aligned.59

> <s_m_job_name>
align_ligands_1

> <s_phase_Alignment_Method>
snapped core

> <s_phase_Alignment_Reason>


> <s_phase_Core_SMARTS>
a1aaaaa1-a2aa(aa2)-a3aaaa(a3)-a4aaaaa4

$$$$
110
                    3D
 Schrodinger Suite 2023-2.
 60 63  0  0  1  0            999 V2000
   -4.8466   -3.4241    1.6134 F   0  0  0  0  0  0
   -5.0120   -2.1173    1.8111 C   0  0  0  0  0  0
   -5.9312   -1.6407    0.9732 F   0  0  0  0  0  0
   -5.3787   -1.8881    3.0709 F   0  0  0  0  0  0
   -3.7102   -1.4192    1.5505 C   0  0  0  0  0  0
   -2.5092   -2.0790    1.7828 C   0  0  0  0  0  0
   -3.7049   -0.1126    1.0769 C   0  0  0  0  0  0
   -1.3030   -1.4321    1.5414 C   0  0  0  0  0  0
   -2.4987    0.5343    0.8355 C   0  0  0  0  0  0
   -1.2977   -0.1255    1.0677 C   0  0  0  0  0  0
    0.0041    0.5726    0.8072 C   0  0  0  0  0  0
    0.0745    1.8131    0.3572 N   0  0  0  0  0  0
    1.2788    0.0570    0.9868 C   0  0  0  0  0  0
    1.4087    2.1505    0.2272 N   0  0  0  0  0  0
    2.1133    1.0787    0.6116 N   0  0  0  0  0  0
    3.5729    1.0430    0.6162 C   0  0  0  0  0  0
    4.2688   -0.0378   -0.0014 C   0  0  0  0  0  0
    4.3095    2.0826    1.2307 C   0  0  0  0  0  0
    5.6959   -0.0428    0.0147 C   0  0  0  0  0  0
    5.7140    2.0823    1.2549 C   0  0  0  0  0  0
    6.4845   -1.1328   -0.6109 C   0  0  0  0  0  0
    6.3738    1.0063    0.6388 C   0  0  0  0  0  0
    6.4824    3.1926    1.9177 C   0  0  0  0  0  0
    6.8885   -2.2318    0.1496 C   0  0  0  0  0  0
    6.8196   -1.0713   -1.9653 C   0  0  0  0  0  0
    7.7329    3.1460    1.9172 O   0  0  0  0  0  0
    5.8483    4.1301    2.4513 O   0  5  0  0  0  0
    7.6134   -3.2639   -0.4389 C   0  0  0  0  0  0
    7.5469   -2.1010   -2.5562 C   0  0  0  0  0  0
    7.9469   -3.2050   -1.7964 C   0  0  0  0  0  0
    8.6622   -4.2299   -2.4710 N   0  0  0  0  0  0
    9.5079   -5.1874   -1.9254 C   0  0  0  0  0  0
    9.7990   -5.3356   -0.7385 O   0  0  0  0  0  0
    9.9843   -5.9403   -2.9470 O   0  0  0  0  0  0
   10.9040   -7.0310   -2.7938 C   0  0  0  0  0  0
   10.2980   -8.1667   -1.9399 C   0  0  0  0  0  0
   12.2591   -6.5512   -2.2288 C   0  0  0  0  0  0
   11.1170   -7.5474   -4.2279 C   0  0  0  0  0  0
   -2.5039   -3.0920    2.1574 H   0  0  0  0  0  0
   -4.6330    0.4107    0.9001 H   0  0  0  0  0  0
   -0.3799   -1.9597    1.7291 H   0  0  0  0  0  0
   -2.5152    1.5504    0.4692 H   0  0  0  0  0  0
    1.6400   -0.9000    1.3330 H   0  0  0  0  0  0
    3.7255   -0.8399   -0.4793 H   0  0  0  0  0  0
    3.7663    2.8934    1.6947 H   0  0  0  0  0  0
    7.4543    0.9796    0.6402 H   0  0  0  0  0  0
    6.6304   -2.2889    1.1971 H   0  0  0  0  0  0
    6.5106   -0.2243   -2.5603 H   0  0  0  0  0  0
    7.8861   -4.1081    0.1749 H   0  0  0  0  0  0
    7.7943   -2.0436   -3.6064 H   0  0  0  0  0  0
    8.6189   -4.2283   -3.4798 H   0  0  0  0  0  0
   10.9455   -9.0441   -1.9417 H   0  0  0  0  0  0
    9.3257   -8.4752   -2.3258 H   0  0  0  0  0  0
   10.1630   -7.8758   -0.8984 H   0  0  0  0  0  0
   12.1811   -6.2107   -1.1969 H   0  0  0  0  0  0
   12.6644   -5.7282   -2.8187 H   0  0  0  0  0  0
   12.9941   -7.3565   -2.2410 H   0  0  0  0  0  0
   11.8077   -8.3914   -4.2479 H   0  0  0  0  0  0
   11.5286   -6.7705   -4.8736 H   0  0  0  0  0  0
   10.1786   -7.8813   -4.6732 H   0  0  0  0  0  0
  1  2  1  0  0  0
  2  3  1  0  0  0
  2  4  1  0  0  0
  2  5  1  0  0  0
  5  6  2  0  0  0
  5  7  1  0  0  0
  6  8  1  0  0  0
  6 39  1  0  0  0
  7  9  2  0  0  0
  7 40  1  0  0  0
  8 10  2  0  0  0
  8 41  1  0  0  0
  9 10  1  0  0  0
  9 42  1  0  0  0
 10 11  1  0  0  0
 11 12  1  0  0  0
 11 13  2  0  0  0
 12 14  2  0  0  0
 13 15  1  0  0  0
 13 43  1  0  0  0
 14 15  1  0  0  0
 15 16  1  0  0  0
 16 17  2  0  0  0
 16 18  1  0  0  0
 17 19  1  0  0  0
 17 44  1  0  0  0
 18 20  2  0  0  0
 18 45  1  0  0  0
 19 21  1  0  0  0
 19 22  2  0  0  0
 20 23  1  0  0  0
 20 22  1  0  0  0
 21 24  2  0  0  0
 21 25  1  0  0  0
 22 46  1  0  0  0
 23 26  2  0  0  0
 23 27  1  0  0  0
 24 28  1  0  0  0
 24 47  1  0  0  0
 25 29  2  0  0  0
 25 48  1  0  0  0
 28 30  2  0  0  0
 28 49  1  0  0  0
 29 30  1  0  0  0
 29 50  1  0  0  0
 30 31  1  0  0  0
 31 32  1  0  0  0
 31 51  1  0  0  0
 32 33  2  0  0  0
 32 34  1  0  0  0
 34 35  1  0  0  0
 35 36  1  0  0  0
 35 37  1  0  0  0
 35 38  1  0  0  0
 36 52  1  0  0  0
 36 53  1  0  0  0
 36 54  1  0  0  0
 37 55  1  0  0  0
 37 56  1  0  0  0
 37 57  1  0  0  0
 38 58  1  0  0  0
 38 59  1  0  0  0
 38 60  1  0  0  0
M  CHG  1  27  -1
M  END
> <i_epik_Tot_Q>
-1

> <i_epik_Tot_abs_Q>
1

> <i_lp_mmshare_version>
62121

> <i_m_Source_File_Index>
60

> <i_phase_Input_Structure_Number>
80

> <i_phase_Reference_Structure>
41

> <i_phase_Structure_Number>
80

> <Molecule Name>
110

> <Rotatable Bonds>
8

> <i_f3d_flags>
0

> <b_lp_Chiralities_Consistent>
1

> <r_canvas_IC50_human_P2Y14R,_nM>
3160

> <r_canvas_pIC50>
5.5003129173816

> <r_epik_Charging_Adjusted_Penalty>
0.000166961650298847

> <r_epik_Ionization_Penalty>
  0.0002

> <r_epik_Ionization_Penalty_Charging>
  0.0002

> <r_epik_Ionization_Penalty_Neutral>
  0.0000

> <r_epik_State_Penalty>
  0.0000

> <r_lp_Energy>
45.756294

> <r_lp_tautomer_probability>
1

> <r_phase_Similarity_to_Reference>
0.81128377774302

> <s_canvas_CHEMBLID>
CHEMBL4458050

> <s_canvas_Compound>
10

> <s_canvas_Paper>
Jung2021

> <s_epik_Chemistry_Notes>
This compound has an ester and may undergo hydrolysis at high or low pH.

> <s_epik_cmdline>
J2VwaWtfcHl0aG9uJywgJy1waCcsICc3LjAnLCAnLXRuJywgJzgnLCAnLW1hJywgJzUwMCcsICctaW1hZScsICc8aW5maWxlLm1hZT4nLCAnLW9tYWUnLCAnPG91dGZpbGUubWFlPic=

> <s_epik_input>
RkMoRikoRiljMVtjSF1bY0hdYyhbY0hdW2NIXTEpLWMybm5uKFtjSF0yKS1jM1tjSF1jKFtjSF1jKFtjSF0zKUMoPU8pW09IXSktYzRbY0hdW2NIXWMoW2NIXVtjSF00KVtOSF1DKD1PKU9DKFtDSDNdKShbQ0gzXSlbQ0gzXQ==

> <s_lp_Force_Field>
S-OPLS

> <s_lp_Variant>
110-1

> <s_m_Source_File>
database-aligned.sdf

> <s_m_Source_Path>
/data/matteo/P2Y14-antagonists-piperidineDerivatives-Wen2023/14052024-optimized-alignment

> <s_m_entry_id>
60

> <s_m_entry_name>
database-aligned.60

> <s_m_job_name>
align_ligands_1

> <s_phase_Alignment_Method>
snapped core

> <s_phase_Alignment_Reason>


> <s_phase_Core_SMARTS>
a1aaaaa1-a2aa(aa2)-a3aaaa(a3)-a4aaaaa4

$$$$
111
                    3D
 Schrodinger Suite 2023-2.
 63 67  0  0  1  0            999 V2000
   -4.8466   -3.4241    1.6134 F   0  0  0  0  0  0
   -5.0120   -2.1173    1.8111 C   0  0  0  0  0  0
   -5.9312   -1.6407    0.9732 F   0  0  0  0  0  0
   -5.3787   -1.8881    3.0709 F   0  0  0  0  0  0
   -3.7102   -1.4192    1.5505 C   0  0  0  0  0  0
   -2.5092   -2.0790    1.7828 C   0  0  0  0  0  0
   -3.7049   -0.1126    1.0769 C   0  0  0  0  0  0
   -1.3030   -1.4321    1.5414 C   0  0  0  0  0  0
   -2.4987    0.5343    0.8355 C   0  0  0  0  0  0
   -1.2977   -0.1255    1.0677 C   0  0  0  0  0  0
    0.0041    0.5726    0.8072 C   0  0  0  0  0  0
    0.0745    1.8131    0.3572 N   0  0  0  0  0  0
    1.2788    0.0570    0.9868 C   0  0  0  0  0  0
    1.4087    2.1505    0.2272 N   0  0  0  0  0  0
    2.1133    1.0787    0.6116 N   0  0  0  0  0  0
    3.5729    1.0430    0.6162 C   0  0  0  0  0  0
    4.2688   -0.0378   -0.0014 C   0  0  0  0  0  0
    4.3095    2.0826    1.2307 C   0  0  0  0  0  0
    5.6959   -0.0428    0.0147 C   0  0  0  0  0  0
    5.7140    2.0823    1.2549 C   0  0  0  0  0  0
    6.4845   -1.1328   -0.6109 C   0  0  0  0  0  0
    6.3738    1.0063    0.6388 C   0  0  0  0  0  0
    6.4824    3.1926    1.9177 C   0  0  0  0  0  0
    6.8885   -2.2318    0.1496 C   0  0  0  0  0  0
    6.8196   -1.0713   -1.9653 C   0  0  0  0  0  0
    7.7329    3.1460    1.9172 O   0  0  0  0  0  0
    5.8483    4.1301    2.4513 O   0  5  0  0  0  0
    7.6134   -3.2639   -0.4389 C   0  0  0  0  0  0
    7.5469   -2.1010   -2.5562 C   0  0  0  0  0  0
    7.9469   -3.2050   -1.7964 C   0  0  0  0  0  0
    8.7014   -4.2899   -2.3091 N   0  0  0  0  0  0
    8.7737   -4.7712   -3.5636 C   0  0  0  0  0  0
    8.2090   -4.2633   -4.5317 O   0  0  0  0  0  0
    9.6089   -6.0531   -3.7683 C   0  0  0  0  0  0
   11.0997   -5.9053   -3.4460 C   0  0  0  0  0  0
    9.0863   -7.2762   -3.0052 C   0  0  0  0  0  0
   11.4161   -5.7873   -1.9432 C   0  0  0  0  0  0
    9.3068   -7.2165   -1.4814 C   0  0  0  0  0  0
   10.5541   -6.5587   -1.0230 N   0  3  0  0  0  0
   -2.5102   -3.0945    2.1510 H   0  0  0  0  0  0
   -4.6297    0.4131    0.8917 H   0  0  0  0  0  0
   -0.3800   -1.9602    1.7276 H   0  0  0  0  0  0
   -2.5155    1.5498    0.4677 H   0  0  0  0  0  0
    1.6400   -0.8997    1.3332 H   0  0  0  0  0  0
    3.7255   -0.8397   -0.4796 H   0  0  0  0  0  0
    3.7661    2.8935    1.6944 H   0  0  0  0  0  0
    7.4543    0.9796    0.6393 H   0  0  0  0  0  0
    6.6340   -2.2860    1.1982 H   0  0  0  0  0  0
    6.5150   -0.2218   -2.5594 H   0  0  0  0  0  0
    7.9178   -4.1086    0.1617 H   0  0  0  0  0  0
    7.8042   -2.0137   -3.6006 H   0  0  0  0  0  0
    9.1671   -4.8466   -1.6089 H   0  0  0  0  0  0
    9.5354   -6.2862   -4.8320 H   0  0  0  0  0  0
   11.6204   -6.7798   -3.8386 H   0  0  0  0  0  0
   11.5231   -5.0529   -3.9793 H   0  0  0  0  0  0
    8.0281   -7.4355   -3.2176 H   0  0  0  0  0  0
    9.5951   -8.1606   -3.3914 H   0  0  0  0  0  0
   12.4584   -6.0447   -1.7537 H   0  0  0  0  0  0
   11.3191   -4.7412   -1.6520 H   0  0  0  0  0  0
    8.4805   -6.6661   -1.0314 H   0  0  0  0  0  0
    9.2549   -8.2171   -1.0519 H   0  0  0  0  0  0
   11.1386   -7.3143   -0.6944 H   0  0  0  0  0  0
   10.3422   -5.9847   -0.2191 H   0  0  0  0  0  0
  1  2  1  0  0  0
  2  3  1  0  0  0
  2  4  1  0  0  0
  2  5  1  0  0  0
  5  6  2  0  0  0
  5  7  1  0  0  0
  6  8  1  0  0  0
  6 40  1  0  0  0
  7  9  2  0  0  0
  7 41  1  0  0  0
  8 10  2  0  0  0
  8 42  1  0  0  0
  9 10  1  0  0  0
  9 43  1  0  0  0
 10 11  1  0  0  0
 11 12  1  0  0  0
 11 13  2  0  0  0
 12 14  2  0  0  0
 13 15  1  0  0  0
 13 44  1  0  0  0
 14 15  1  0  0  0
 15 16  1  0  0  0
 16 17  2  0  0  0
 16 18  1  0  0  0
 17 19  1  0  0  0
 17 45  1  0  0  0
 18 20  2  0  0  0
 18 46  1  0  0  0
 19 21  1  0  0  0
 19 22  2  0  0  0
 20 23  1  0  0  0
 20 22  1  0  0  0
 21 24  2  0  0  0
 21 25  1  0  0  0
 22 47  1  0  0  0
 23 26  2  0  0  0
 23 27  1  0  0  0
 24 28  1  0  0  0
 24 48  1  0  0  0
 25 29  2  0  0  0
 25 49  1  0  0  0
 28 30  2  0  0  0
 28 50  1  0  0  0
 29 30  1  0  0  0
 29 51  1  0  0  0
 30 31  1  0  0  0
 31 32  1  0  0  0
 31 52  1  0  0  0
 32 33  2  0  0  0
 32 34  1  0  0  0
 34 35  1  0  0  0
 34 36  1  0  0  0
 34 53  1  0  0  0
 35 37  1  0  0  0
 35 54  1  0  0  0
 35 55  1  0  0  0
 36 38  1  0  0  0
 36 56  1  0  0  0
 36 57  1  0  0  0
 37 39  1  0  0  0
 37 58  1  0  0  0
 37 59  1  0  0  0
 38 39  1  0  0  0
 38 60  1  0  0  0
 38 61  1  0  0  0
 39 62  1  0  0  0
 39 63  1  0  0  0
M  CHG  2  27  -1  39   1
M  END
> <i_epik_Tot_Q>
0

> <i_epik_Tot_abs_Q>
2

> <i_lp_mmshare_version>
62121

> <i_m_Source_File_Index>
61

> <i_phase_Input_Structure_Number>
81

> <i_phase_Reference_Structure>
82

> <i_phase_Structure_Number>
81

> <Molecule Name>
111

> <Rotatable Bonds>
7

> <i_f3d_flags>
0

> <b_lp_Chiralities_Consistent>
1

> <r_canvas_IC50_human_P2Y14R,_nM>
197

> <r_canvas_pIC50>
6.70553377383841

> <r_epik_Charging_Adjusted_Penalty>
0.00236438540628409

> <r_epik_Ionization_Penalty>
  0.0013

> <r_epik_Ionization_Penalty_Charging>
  0.0013

> <r_epik_Ionization_Penalty_Neutral>
  0.0000

> <r_epik_State_Penalty>
  0.0011

> <r_lp_Energy>
67.603648

> <r_lp_tautomer_probability>
1

> <r_phase_Similarity_to_Reference>
0.853376314405208

> <s_canvas_CHEMBLID>
CHEMBL4455037

> <s_canvas_Compound>
11

> <s_canvas_Paper>
Jung2021

> <s_epik_cmdline>
J2VwaWtfcHl0aG9uJywgJy1waCcsICc3LjAnLCAnLXRuJywgJzgnLCAnLW1hJywgJzUwMCcsICctaW1hZScsICc8aW5maWxlLm1hZT4nLCAnLW9tYWUnLCAnPG91dGZpbGUubWFlPic=

> <s_epik_input>
RkMoRikoRiljMVtjSF1bY0hdYyhbY0hdW2NIXTEpLWMybm5uKFtjSF0yKS1jM1tjSF1jKFtjSF1jKFtjSF0zKUMoPU8pW09IXSktYzRbY0hdW2NIXWMoW2NIXVtjSF00KVtOSF1DKD1PKVtDSF01W0NIMl1bQ0gyXVtOSF1bQ0gyXVtDSDJdNQ==

> <s_lp_Force_Field>
S-OPLS

> <s_lp_Variant>
111-1

> <s_m_Source_File>
database-aligned.sdf

> <s_m_Source_Path>
/data/matteo/P2Y14-antagonists-piperidineDerivatives-Wen2023/14052024-optimized-alignment

> <s_m_entry_id>
61

> <s_m_entry_name>
database-aligned.61

> <s_m_job_name>
align_ligands_1

> <s_phase_Alignment_Method>
snapped core

> <s_phase_Alignment_Reason>


> <s_phase_Core_SMARTS>
A1A[A]AAA1A(=A)Aa2aaa(aa2)-a3aa(aaa3)-a4aaa(a4)-a5aaaaa5

$$$$
112
                    3D
 Schrodinger Suite 2023-2.
 77 81  0  0  1  0            999 V2000
   -4.8466   -3.4241    1.6134 F   0  0  0  0  0  0
   -5.0120   -2.1173    1.8111 C   0  0  0  0  0  0
   -5.9312   -1.6407    0.9732 F   0  0  0  0  0  0
   -5.3787   -1.8881    3.0709 F   0  0  0  0  0  0
   -3.7102   -1.4192    1.5505 C   0  0  0  0  0  0
   -3.7049   -0.1126    1.0769 C   0  0  0  0  0  0
   -2.5092   -2.0790    1.7828 C   0  0  0  0  0  0
   -2.4987    0.5343    0.8355 C   0  0  0  0  0  0
   -1.3030   -1.4321    1.5414 C   0  0  0  0  0  0
   -1.2977   -0.1255    1.0677 C   0  0  0  0  0  0
    0.0041    0.5726    0.8072 C   0  0  0  0  0  0
    0.0745    1.8131    0.3572 N   0  0  0  0  0  0
    1.2788    0.0570    0.9868 C   0  0  0  0  0  0
    1.4087    2.1505    0.2272 N   0  0  0  0  0  0
    2.1133    1.0787    0.6116 N   0  0  0  0  0  0
    3.5729    1.0430    0.6162 C   0  0  0  0  0  0
    4.2688   -0.0378   -0.0014 C   0  0  0  0  0  0
    4.3095    2.0826    1.2307 C   0  0  0  0  0  0
    5.6959   -0.0428    0.0147 C   0  0  0  0  0  0
    5.7140    2.0823    1.2549 C   0  0  0  0  0  0
    6.4845   -1.1328   -0.6109 C   0  0  0  0  0  0
    6.3738    1.0063    0.6388 C   0  0  0  0  0  0
    6.4824    3.1926    1.9177 C   0  0  0  0  0  0
    6.8885   -2.2318    0.1496 C   0  0  0  0  0  0
    6.8196   -1.0713   -1.9653 C   0  0  0  0  0  0
    7.7329    3.1460    1.9172 O   0  0  0  0  0  0
    5.8483    4.1301    2.4513 O   0  5  0  0  0  0
    7.6134   -3.2639   -0.4389 C   0  0  0  0  0  0
    7.5469   -2.1010   -2.5562 C   0  0  0  0  0  0
    7.9469   -3.2050   -1.7964 C   0  0  0  0  0  0
    8.7014   -4.2899   -2.3091 N   0  0  0  0  0  0
    8.7737   -4.7712   -3.5636 C   0  0  0  0  0  0
    8.2090   -4.2633   -4.5317 O   0  0  0  0  0  0
    9.6089   -6.0531   -3.7683 C   0  0  0  0  0  0
   11.0997   -5.9053   -3.4460 C   0  0  0  0  0  0
    9.0863   -7.2762   -3.0052 C   0  0  0  0  0  0
   11.4161   -5.7873   -1.9432 C   0  0  0  0  0  0
    9.3068   -7.2165   -1.4814 C   0  0  0  0  0  0
   10.5541   -6.5587   -1.0230 N   0  0  0  0  0  0
   10.8675   -6.4920    0.3432 C   0  0  0  0  0  0
   11.8536   -5.9262    0.8180 O   0  0  0  0  0  0
    9.9047   -7.1053    1.0885 O   0  0  0  0  0  0
    9.8353   -7.0695    2.5201 C   0  0  0  0  0  0
   11.0480   -7.7711    3.1697 C   0  0  0  0  0  0
    8.5611   -7.8653    2.8514 C   0  0  0  0  0  0
    9.6661   -5.6227    3.0335 C   0  0  0  0  0  0
   -4.6292    0.4140    0.8914 H   0  0  0  0  0  0
   -2.5104   -3.0945    2.1509 H   0  0  0  0  0  0
   -2.5154    1.5498    0.4677 H   0  0  0  0  0  0
   -0.3800   -1.9602    1.7276 H   0  0  0  0  0  0
    1.6400   -0.8998    1.3330 H   0  0  0  0  0  0
    3.7256   -0.8405   -0.4785 H   0  0  0  0  0  0
    3.7660    2.8930    1.6951 H   0  0  0  0  0  0
    7.4543    0.9790    0.6402 H   0  0  0  0  0  0
    6.6349   -2.2863    1.1983 H   0  0  0  0  0  0
    6.5157   -0.2216   -2.5593 H   0  0  0  0  0  0
    7.9202   -4.1086    0.1614 H   0  0  0  0  0  0
    7.8049   -2.0141   -3.6002 H   0  0  0  0  0  0
    9.1703   -4.8488   -1.6109 H   0  0  0  0  0  0
    9.5355   -6.2860   -4.8321 H   0  0  0  0  0  0
   11.6208   -6.7792   -3.8391 H   0  0  0  0  0  0
   11.5221   -5.0524   -3.9788 H   0  0  0  0  0  0
    8.0278   -7.4341   -3.2166 H   0  0  0  0  0  0
    9.5938   -8.1612   -3.3915 H   0  0  0  0  0  0
   12.4598   -6.0657   -1.7865 H   0  0  0  0  0  0
   11.3449   -4.7360   -1.6593 H   0  0  0  0  0  0
    8.4630   -6.6892   -1.0335 H   0  0  0  0  0  0
    9.2644   -8.2357   -1.0934 H   0  0  0  0  0  0
   10.9136   -7.8607    4.2482 H   0  0  0  0  0  0
   11.9775   -7.2251    3.0129 H   0  0  0  0  0  0
   11.1834   -8.7770    2.7708 H   0  0  0  0  0  0
    8.6274   -8.8907    2.4860 H   0  0  0  0  0  0
    7.6802   -7.4116    2.3956 H   0  0  0  0  0  0
    8.3880   -7.9092    3.9271 H   0  0  0  0  0  0
    9.4728   -5.6086    4.1066 H   0  0  0  0  0  0
    8.8289   -5.1251    2.5425 H   0  0  0  0  0  0
   10.5551   -5.0159    2.8637 H   0  0  0  0  0  0
  1  2  1  0  0  0
  2  3  1  0  0  0
  2  4  1  0  0  0
  2  5  1  0  0  0
  5  6  2  0  0  0
  5  7  1  0  0  0
  6  8  1  0  0  0
  6 47  1  0  0  0
  7  9  2  0  0  0
  7 48  1  0  0  0
  8 10  2  0  0  0
  8 49  1  0  0  0
  9 10  1  0  0  0
  9 50  1  0  0  0
 10 11  1  0  0  0
 11 12  1  0  0  0
 11 13  2  0  0  0
 12 14  2  0  0  0
 13 15  1  0  0  0
 13 51  1  0  0  0
 14 15  1  0  0  0
 15 16  1  0  0  0
 16 17  2  0  0  0
 16 18  1  0  0  0
 17 19  1  0  0  0
 17 52  1  0  0  0
 18 20  2  0  0  0
 18 53  1  0  0  0
 19 21  1  0  0  0
 19 22  2  0  0  0
 20 23  1  0  0  0
 20 22  1  0  0  0
 21 24  2  0  0  0
 21 25  1  0  0  0
 22 54  1  0  0  0
 23 26  2  0  0  0
 23 27  1  0  0  0
 24 28  1  0  0  0
 24 55  1  0  0  0
 25 29  2  0  0  0
 25 56  1  0  0  0
 28 30  2  0  0  0
 28 57  1  0  0  0
 29 30  1  0  0  0
 29 58  1  0  0  0
 30 31  1  0  0  0
 31 32  1  0  0  0
 31 59  1  0  0  0
 32 33  2  0  0  0
 32 34  1  0  0  0
 34 35  1  0  0  0
 34 36  1  0  0  0
 34 60  1  0  0  0
 35 37  1  0  0  0
 35 61  1  0  0  0
 35 62  1  0  0  0
 36 38  1  0  0  0
 36 63  1  0  0  0
 36 64  1  0  0  0
 37 39  1  0  0  0
 37 65  1  0  0  0
 37 66  1  0  0  0
 38 39  1  0  0  0
 38 67  1  0  0  0
 38 68  1  0  0  0
 39 40  1  0  0  0
 40 41  2  0  0  0
 40 42  1  0  0  0
 42 43  1  0  0  0
 43 44  1  0  0  0
 43 45  1  0  0  0
 43 46  1  0  0  0
 44 69  1  0  0  0
 44 70  1  0  0  0
 44 71  1  0  0  0
 45 72  1  0  0  0
 45 73  1  0  0  0
 45 74  1  0  0  0
 46 75  1  0  0  0
 46 76  1  0  0  0
 46 77  1  0  0  0
M  CHG  1  27  -1
M  END
> <i_epik_Tot_Q>
-1

> <i_epik_Tot_abs_Q>
1

> <i_lp_mmshare_version>
62121

> <i_m_Source_File_Index>
62

> <i_phase_Input_Structure_Number>
82

> <i_phase_Reference_Structure>
41

> <i_phase_Structure_Number>
82

> <Molecule Name>
112

> <Rotatable Bonds>
9

> <i_f3d_flags>
0

> <b_lp_Chiralities_Consistent>
1

> <r_canvas_IC50_human_P2Y14R,_nM>
22500

> <r_canvas_pIC50>
4.64781748188864

> <r_epik_Charging_Adjusted_Penalty>
0.000166961650298847

> <r_epik_Ionization_Penalty>
  0.0002

> <r_epik_Ionization_Penalty_Charging>
  0.0002

> <r_epik_Ionization_Penalty_Neutral>
  0.0000

> <r_epik_State_Penalty>
  0.0000

> <r_lp_Energy>
60.255616

> <r_lp_tautomer_probability>
1

> <r_phase_Similarity_to_Reference>
0.745925529783543

> <s_canvas_CHEMBLID>
CHEMBL4454538

> <s_canvas_Compound>
12

> <s_canvas_Paper>
Jung2021

> <s_epik_Chemistry_Notes>
This compound has an ester and may undergo hydrolysis at high or low pH.

> <s_epik_cmdline>
J2VwaWtfcHl0aG9uJywgJy1waCcsICc3LjAnLCAnLXRuJywgJzgnLCAnLW1hJywgJzUwMCcsICctaW1hZScsICc8aW5maWxlLm1hZT4nLCAnLW9tYWUnLCAnPG91dGZpbGUubWFlPic=

> <s_epik_input>
RkMoRikoRiljMVtjSF1bY0hdYyhbY0hdW2NIXTEpLWMybm5uKFtjSF0yKS1jM1tjSF1jKFtjSF1jKFtjSF0zKUMoPU8pW09IXSktYzRbY0hdW2NIXWMoW2NIXVtjSF00KVtOSF1DKD1PKVtDSF01W0NIMl1bQ0gyXU4oW0NIMl1bQ0gyXTUpQyg9TylPQyhbQ0gzXSkoW0NIM10pW0NIM10=

> <s_lp_Force_Field>
S-OPLS

> <s_lp_Variant>
112-1

> <s_m_Source_File>
database-aligned.sdf

> <s_m_Source_Path>
/data/matteo/P2Y14-antagonists-piperidineDerivatives-Wen2023/14052024-optimized-alignment

> <s_m_entry_id>
62

> <s_m_entry_name>
database-aligned.62

> <s_m_job_name>
align_ligands_1

> <s_phase_Alignment_Method>
snapped core

> <s_phase_Alignment_Reason>


> <s_phase_Core_SMARTS>
a1aaaaa1-a2aa(aa2)-a3aaaa(a3)-a4aaaaa4

$$$$
113
                    3D
 Schrodinger Suite 2023-2.
 45 48  0  0  1  0            999 V2000
   -4.8466   -3.4241    1.6134 F   0  0  0  0  0  0
   -5.0120   -2.1173    1.8111 C   0  0  0  0  0  0
   -5.9312   -1.6407    0.9732 F   0  0  0  0  0  0
   -5.3787   -1.8881    3.0709 F   0  0  0  0  0  0
   -3.7102   -1.4192    1.5505 C   0  0  0  0  0  0
   -2.5092   -2.0790    1.7828 C   0  0  0  0  0  0
   -3.7049   -0.1126    1.0769 C   0  0  0  0  0  0
   -1.3030   -1.4321    1.5414 C   0  0  0  0  0  0
   -2.4987    0.5343    0.8355 C   0  0  0  0  0  0
   -1.2977   -0.1255    1.0677 C   0  0  0  0  0  0
    0.0041    0.5726    0.8072 C   0  0  0  0  0  0
    0.0745    1.8131    0.3572 N   0  0  0  0  0  0
    1.2788    0.0570    0.9868 C   0  0  0  0  0  0
    1.4087    2.1505    0.2272 N   0  0  0  0  0  0
    2.1133    1.0787    0.6116 N   0  0  0  0  0  0
    3.5729    1.0430    0.6162 C   0  0  0  0  0  0
    4.2688   -0.0378   -0.0014 C   0  0  0  0  0  0
    4.3095    2.0826    1.2307 C   0  0  0  0  0  0
    5.6959   -0.0428    0.0147 C   0  0  0  0  0  0
    5.7140    2.0823    1.2549 C   0  0  0  0  0  0
    6.4845   -1.1328   -0.6109 C   0  0  0  0  0  0
    6.3738    1.0063    0.6388 C   0  0  0  0  0  0
    6.4824    3.1926    1.9177 C   0  0  0  0  0  0
    6.8196   -1.0713   -1.9653 C   0  0  0  0  0  0
    6.8885   -2.2318    0.1496 C   0  0  0  0  0  0
    7.7329    3.1460    1.9172 O   0  0  0  0  0  0
    5.8483    4.1301    2.4513 O   0  5  0  0  0  0
    7.5469   -2.1010   -2.5562 C   0  0  0  0  0  0
    7.6134   -3.2639   -0.4389 C   0  0  0  0  0  0
    7.9469   -3.2050   -1.7964 C   0  0  0  0  0  0
    8.7330   -4.3212   -2.4333 C   0  0  0  0  0  0
    9.0781   -5.2971   -1.7297 O   0  0  0  0  0  0
    9.0198   -4.2433   -3.6491 O   0  5  0  0  0  0
   -2.5031   -3.0928    2.1550 H   0  0  0  0  0  0
   -4.6329    0.4101    0.8976 H   0  0  0  0  0  0
   -0.3801   -1.9598    1.7285 H   0  0  0  0  0  0
   -2.5154    1.5501    0.4687 H   0  0  0  0  0  0
    1.6394   -0.8996    1.3335 H   0  0  0  0  0  0
    3.7259   -0.8404   -0.4789 H   0  0  0  0  0  0
    3.7662    2.8935    1.6947 H   0  0  0  0  0  0
    7.4544    0.9787    0.6396 H   0  0  0  0  0  0
    6.5121   -0.2239   -2.5605 H   0  0  0  0  0  0
    6.6346   -2.2869    1.1982 H   0  0  0  0  0  0
    7.7929   -2.0305   -3.6059 H   0  0  0  0  0  0
    7.9119   -4.1047    0.1704 H   0  0  0  0  0  0
  1  2  1  0  0  0
  2  3  1  0  0  0
  2  4  1  0  0  0
  2  5  1  0  0  0
  5  6  2  0  0  0
  5  7  1  0  0  0
  6  8  1  0  0  0
  6 34  1  0  0  0
  7  9  2  0  0  0
  7 35  1  0  0  0
  8 10  2  0  0  0
  8 36  1  0  0  0
  9 10  1  0  0  0
  9 37  1  0  0  0
 10 11  1  0  0  0
 11 12  1  0  0  0
 11 13  2  0  0  0
 12 14  2  0  0  0
 13 15  1  0  0  0
 13 38  1  0  0  0
 14 15  1  0  0  0
 15 16  1  0  0  0
 16 17  2  0  0  0
 16 18  1  0  0  0
 17 19  1  0  0  0
 17 39  1  0  0  0
 18 20  2  0  0  0
 18 40  1  0  0  0
 19 21  1  0  0  0
 19 22  2  0  0  0
 20 23  1  0  0  0
 20 22  1  0  0  0
 21 24  2  0  0  0
 21 25  1  0  0  0
 22 41  1  0  0  0
 23 26  2  0  0  0
 23 27  1  0  0  0
 24 28  1  0  0  0
 24 42  1  0  0  0
 25 29  2  0  0  0
 25 43  1  0  0  0
 28 30  2  0  0  0
 28 44  1  0  0  0
 29 30  1  0  0  0
 29 45  1  0  0  0
 30 31  1  0  0  0
 31 32  2  0  0  0
 31 33  1  0  0  0
M  CHG  2  27  -1  33  -1
M  END
> <i_epik_Tot_Q>
-2

> <i_epik_Tot_abs_Q>
2

> <i_lp_mmshare_version>
62121

> <i_m_Source_File_Index>
63

> <i_phase_Input_Structure_Number>
83

> <i_phase_Reference_Structure>
41

> <i_phase_Structure_Number>
83

> <Molecule Name>
113

> <Rotatable Bonds>
6

> <i_f3d_flags>
0

> <b_lp_Chiralities_Consistent>
1

> <r_canvas_IC50_human_P2Y14R,_nM>
632

> <r_canvas_pIC50>
6.19928292171762

> <r_epik_Charging_Adjusted_Penalty>
0.00165781418748724

> <r_epik_Ionization_Penalty>
  0.0009

> <r_epik_Ionization_Penalty_Charging>
  0.0009

> <r_epik_Ionization_Penalty_Neutral>
  0.0000

> <r_epik_State_Penalty>
  0.0007

> <r_lp_Energy>
53.636148

> <r_lp_tautomer_probability>
1

> <r_phase_Similarity_to_Reference>
0.786560955491441

> <s_canvas_CHEMBLID>
CHEMBL4443391

> <s_canvas_Compound>
13

> <s_canvas_Paper>
Jung2021

> <s_epik_cmdline>
J2VwaWtfcHl0aG9uJywgJy1waCcsICc3LjAnLCAnLXRuJywgJzgnLCAnLW1hJywgJzUwMCcsICctaW1hZScsICc8aW5maWxlLm1hZT4nLCAnLW9tYWUnLCAnPG91dGZpbGUubWFlPic=

> <s_epik_input>
RkMoRikoRiljMVtjSF1bY0hdYyhbY0hdW2NIXTEpLWMybm5uKFtjSF0yKS1jM1tjSF1jKFtjSF1jKFtjSF0zKUMoPU8pW09IXSktYzRbY0hdW2NIXWMoW2NIXVtjSF00KUMoPU8pW09IXQ==

> <s_lp_Force_Field>
S-OPLS

> <s_lp_Variant>
113-1

> <s_m_Source_File>
database-aligned.sdf

> <s_m_Source_Path>
/data/matteo/P2Y14-antagonists-piperidineDerivatives-Wen2023/14052024-optimized-alignment

> <s_m_entry_id>
63

> <s_m_entry_name>
database-aligned.63

> <s_m_job_name>
align_ligands_1

> <s_phase_Alignment_Method>
snapped core

> <s_phase_Alignment_Reason>


> <s_phase_Core_SMARTS>
a1aaaaa1-a2aa(aa2)-a3aaaa(a3)-a4aaaaa4

$$$$
114
                    3D
 Schrodinger Suite 2023-2.
 59 62  0  0  1  0            999 V2000
   -4.8466   -3.4241    1.6134 F   0  0  0  0  0  0
   -5.0120   -2.1173    1.8111 C   0  0  0  0  0  0
   -5.9312   -1.6407    0.9732 F   0  0  0  0  0  0
   -5.3787   -1.8881    3.0709 F   0  0  0  0  0  0
   -3.7102   -1.4192    1.5505 C   0  0  0  0  0  0
   -3.7049   -0.1126    1.0769 C   0  0  0  0  0  0
   -2.5092   -2.0790    1.7828 C   0  0  0  0  0  0
   -2.4987    0.5343    0.8355 C   0  0  0  0  0  0
   -1.3030   -1.4321    1.5414 C   0  0  0  0  0  0
   -1.2977   -0.1255    1.0677 C   0  0  0  0  0  0
    0.0041    0.5726    0.8072 C   0  0  0  0  0  0
    0.0745    1.8131    0.3572 N   0  0  0  0  0  0
    1.2788    0.0570    0.9868 C   0  0  0  0  0  0
    1.4087    2.1505    0.2272 N   0  0  0  0  0  0
    2.1133    1.0787    0.6116 N   0  0  0  0  0  0
    3.5729    1.0430    0.6162 C   0  0  0  0  0  0
    4.2688   -0.0378   -0.0014 C   0  0  0  0  0  0
    4.3095    2.0826    1.2307 C   0  0  0  0  0  0
    5.6959   -0.0428    0.0147 C   0  0  0  0  0  0
    5.7140    2.0823    1.2549 C   0  0  0  0  0  0
    6.4845   -1.1328   -0.6109 C   0  0  0  0  0  0
    6.3738    1.0063    0.6388 C   0  0  0  0  0  0
    6.4824    3.1926    1.9177 C   0  0  0  0  0  0
    6.8196   -1.0713   -1.9653 C   0  0  0  0  0  0
    6.8885   -2.2318    0.1496 C   0  0  0  0  0  0
    7.7329    3.1460    1.9172 O   0  0  0  0  0  0
    5.8483    4.1301    2.4513 O   0  5  0  0  0  0
    7.5469   -2.1010   -2.5562 C   0  0  0  0  0  0
    7.6134   -3.2639   -0.4389 C   0  0  0  0  0  0
    7.9469   -3.2050   -1.7964 C   0  0  0  0  0  0
    8.7048   -4.3244   -2.4525 C   0  0  0  0  0  0
    8.5165   -4.6079   -3.6363 O   0  0  0  0  0  0
    9.6132   -4.9431   -1.6797 N   0  0  0  0  0  0
   10.5005   -6.0193   -2.1114 C   0  0  0  0  0  0
    9.9653   -7.4167   -1.7387 C   0  0  0  0  0  0
    8.6236   -7.8054   -2.3869 C   0  0  0  0  0  0
    8.7218   -7.8847   -3.8548 N   0  3  0  0  0  0
   -4.6329    0.4109    0.9001 H   0  0  0  0  0  0
   -2.5038   -3.0920    2.1575 H   0  0  0  0  0  0
   -2.5153    1.5503    0.4693 H   0  0  0  0  0  0
   -0.3801   -1.9597    1.7292 H   0  0  0  0  0  0
    1.6394   -0.8999    1.3335 H   0  0  0  0  0  0
    3.7253   -0.8400   -0.4789 H   0  0  0  0  0  0
    3.7665    2.8933    1.6951 H   0  0  0  0  0  0
    7.4543    0.9795    0.6402 H   0  0  0  0  0  0
    6.5112   -0.2238   -2.5602 H   0  0  0  0  0  0
    6.6320   -2.2871    1.1977 H   0  0  0  0  0  0
    7.7931   -2.0368   -3.6065 H   0  0  0  0  0  0
    7.9013   -4.1099    0.1682 H   0  0  0  0  0  0
    9.7131   -4.6245   -0.7263 H   0  0  0  0  0  0
   10.7010   -5.9558   -3.1820 H   0  0  0  0  0  0
   11.4618   -5.8644   -1.6207 H   0  0  0  0  0  0
   10.7164   -8.1639   -1.9986 H   0  0  0  0  0  0
    9.8573   -7.4727   -0.6547 H   0  0  0  0  0  0
    8.3092   -8.7815   -2.0161 H   0  0  0  0  0  0
    7.8365   -7.1023   -2.1149 H   0  0  0  0  0  0
    7.8306   -8.1685   -4.2372 H   0  0  0  0  0  0
    9.4284   -8.5587   -4.1124 H   0  0  0  0  0  0
    8.9696   -6.9771   -4.2238 H   0  0  0  0  0  0
  1  2  1  0  0  0
  2  3  1  0  0  0
  2  4  1  0  0  0
  2  5  1  0  0  0
  5  6  2  0  0  0
  5  7  1  0  0  0
  6  8  1  0  0  0
  6 38  1  0  0  0
  7  9  2  0  0  0
  7 39  1  0  0  0
  8 10  2  0  0  0
  8 40  1  0  0  0
  9 10  1  0  0  0
  9 41  1  0  0  0
 10 11  1  0  0  0
 11 12  1  0  0  0
 11 13  2  0  0  0
 12 14  2  0  0  0
 13 15  1  0  0  0
 13 42  1  0  0  0
 14 15  1  0  0  0
 15 16  1  0  0  0
 16 17  2  0  0  0
 16 18  1  0  0  0
 17 19  1  0  0  0
 17 43  1  0  0  0
 18 20  2  0  0  0
 18 44  1  0  0  0
 19 21  1  0  0  0
 19 22  2  0  0  0
 20 23  1  0  0  0
 20 22  1  0  0  0
 21 24  2  0  0  0
 21 25  1  0  0  0
 22 45  1  0  0  0
 23 26  2  0  0  0
 23 27  1  0  0  0
 24 28  1  0  0  0
 24 46  1  0  0  0
 25 29  2  0  0  0
 25 47  1  0  0  0
 28 30  2  0  0  0
 28 48  1  0  0  0
 29 30  1  0  0  0
 29 49  1  0  0  0
 30 31  1  0  0  0
 31 32  2  0  0  0
 31 33  1  0  0  0
 33 34  1  0  0  0
 33 50  1  0  0  0
 34 35  1  0  0  0
 34 51  1  0  0  0
 34 52  1  0  0  0
 35 36  1  0  0  0
 35 53  1  0  0  0
 35 54  1  0  0  0
 36 37  1  0  0  0
 36 55  1  0  0  0
 36 56  1  0  0  0
 37 57  1  0  0  0
 37 58  1  0  0  0
 37 59  1  0  0  0
M  CHG  2  27  -1  37   1
M  END
> <i_epik_Tot_Q>
0

> <i_epik_Tot_abs_Q>
2

> <i_lp_mmshare_version>
62121

> <i_m_Source_File_Index>
64

> <i_phase_Input_Structure_Number>
84

> <i_phase_Reference_Structure>
41

> <i_phase_Structure_Number>
84

> <Molecule Name>
114

> <Rotatable Bonds>
9

> <i_f3d_flags>
0

> <b_lp_Chiralities_Consistent>
1

> <r_canvas_IC50_human_P2Y14R,_nM>
588

> <r_canvas_pIC50>
6.23062267392386

> <r_epik_Charging_Adjusted_Penalty>
0.00193558530798341

> <r_epik_Ionization_Penalty>
  0.0011

> <r_epik_Ionization_Penalty_Charging>
  0.0011

> <r_epik_Ionization_Penalty_Neutral>
  0.0000

> <r_epik_State_Penalty>
  0.0009

> <r_lp_Energy>
51.050636

> <r_lp_tautomer_probability>
1

> <r_phase_Similarity_to_Reference>
0.847296936509164

> <s_canvas_CHEMBLID>
CHEMBL4441075

> <s_canvas_Compound>
14

> <s_canvas_Paper>
Jung2021

> <s_epik_cmdline>
J2VwaWtfcHl0aG9uJywgJy1waCcsICc3LjAnLCAnLXRuJywgJzgnLCAnLW1hJywgJzUwMCcsICctaW1hZScsICc8aW5maWxlLm1hZT4nLCAnLW9tYWUnLCAnPG91dGZpbGUubWFlPic=

> <s_epik_input>
RkMoRikoRiljMVtjSF1bY0hdYyhbY0hdW2NIXTEpLWMybm5uKFtjSF0yKS1jM1tjSF1jKFtjSF1jKFtjSF0zKUMoPU8pW09IXSktYzRbY0hdW2NIXWMoW2NIXVtjSF00KUMoPU8pW05IXVtDSDJdW0NIMl1bQ0gyXVtOSDJd

> <s_lp_Force_Field>
S-OPLS

> <s_lp_Variant>
114-1

> <s_m_Source_File>
database-aligned.sdf

> <s_m_Source_Path>
/data/matteo/P2Y14-antagonists-piperidineDerivatives-Wen2023/14052024-optimized-alignment

> <s_m_entry_id>
64

> <s_m_entry_name>
database-aligned.64

> <s_m_job_name>
align_ligands_1

> <s_phase_Alignment_Method>
snapped core

> <s_phase_Alignment_Reason>


> <s_phase_Core_SMARTS>
a1aaaaa1-a2aa(aa2)-a3aaaa(a3)-a4aaaaa4

$$$$
116
                    3D
 Schrodinger Suite 2023-2.
 50 53  0  0  1  0            999 V2000
   -4.8466   -3.4241    1.6134 F   0  0  0  0  0  0
   -5.0120   -2.1173    1.8111 C   0  0  0  0  0  0
   -5.9312   -1.6407    0.9732 F   0  0  0  0  0  0
   -5.3787   -1.8881    3.0709 F   0  0  0  0  0  0
   -3.7102   -1.4192    1.5505 C   0  0  0  0  0  0
   -2.5092   -2.0790    1.7828 C   0  0  0  0  0  0
   -3.7049   -0.1126    1.0769 C   0  0  0  0  0  0
   -1.3030   -1.4321    1.5414 C   0  0  0  0  0  0
   -2.4987    0.5343    0.8355 C   0  0  0  0  0  0
   -1.2977   -0.1255    1.0677 C   0  0  0  0  0  0
    0.0041    0.5726    0.8072 C   0  0  0  0  0  0
    0.0745    1.8131    0.3572 N   0  0  0  0  0  0
    1.2788    0.0570    0.9868 C   0  0  0  0  0  0
    1.4087    2.1505    0.2272 N   0  0  0  0  0  0
    2.1133    1.0787    0.6116 N   0  0  0  0  0  0
    3.5729    1.0430    0.6162 C   0  0  0  0  0  0
    4.2688   -0.0378   -0.0014 C   0  0  0  0  0  0
    4.3095    2.0826    1.2307 C   0  0  0  0  0  0
    5.6959   -0.0428    0.0147 C   0  0  0  0  0  0
    5.7140    2.0823    1.2549 C   0  0  0  0  0  0
    6.4845   -1.1328   -0.6109 C   0  0  0  0  0  0
    6.3738    1.0063    0.6388 C   0  0  0  0  0  0
    6.4824    3.1926    1.9177 C   0  0  0  0  0  0
    6.8196   -1.0713   -1.9653 C   0  0  0  0  0  0
    6.8885   -2.2318    0.1496 C   0  0  0  0  0  0
    7.7329    3.1460    1.9172 O   0  0  0  0  0  0
    5.8483    4.1301    2.4513 O   0  5  0  0  0  0
    7.5469   -2.1010   -2.5562 C   0  0  0  0  0  0
    7.6134   -3.2639   -0.4389 C   0  0  0  0  0  0
    7.9469   -3.2050   -1.7964 C   0  0  0  0  0  0
    8.7426   -4.2733   -2.5680 C   0  0  0  0  0  0
    9.2459   -5.5611   -1.8828 C   0  0  0  0  0  0
    9.0428   -5.8397   -0.7052 O   0  0  0  0  0  0
    9.9371   -6.3901   -2.6689 N   0  0  0  0  0  0
   -2.5105   -3.0945    2.1509 H   0  0  0  0  0  0
   -4.6293    0.4140    0.8914 H   0  0  0  0  0  0
   -0.3800   -1.9601    1.7276 H   0  0  0  0  0  0
   -2.5152    1.5498    0.4677 H   0  0  0  0  0  0
    1.6399   -0.8998    1.3331 H   0  0  0  0  0  0
    3.7257   -0.8400   -0.4792 H   0  0  0  0  0  0
    3.7663    2.8934    1.6948 H   0  0  0  0  0  0
    7.4543    0.9793    0.6403 H   0  0  0  0  0  0
    6.5117   -0.2236   -2.5600 H   0  0  0  0  0  0
    6.6348   -2.2860    1.1983 H   0  0  0  0  0  0
    7.7977   -2.0399   -3.6053 H   0  0  0  0  0  0
    7.8910   -4.0778    0.2055 H   0  0  0  0  0  0
    8.1272   -4.5821   -3.4145 H   0  0  0  0  0  0
    9.6135   -3.7760   -2.9980 H   0  0  0  0  0  0
   10.0957   -6.1552   -3.6380 H   0  0  0  0  0  0
   10.2977   -7.2536   -2.2891 H   0  0  0  0  0  0
  1  2  1  0  0  0
  2  3  1  0  0  0
  2  4  1  0  0  0
  2  5  1  0  0  0
  5  6  2  0  0  0
  5  7  1  0  0  0
  6  8  1  0  0  0
  6 35  1  0  0  0
  7  9  2  0  0  0
  7 36  1  0  0  0
  8 10  2  0  0  0
  8 37  1  0  0  0
  9 10  1  0  0  0
  9 38  1  0  0  0
 10 11  1  0  0  0
 11 12  1  0  0  0
 11 13  2  0  0  0
 12 14  2  0  0  0
 13 15  1  0  0  0
 13 39  1  0  0  0
 14 15  1  0  0  0
 15 16  1  0  0  0
 16 17  2  0  0  0
 16 18  1  0  0  0
 17 19  1  0  0  0
 17 40  1  0  0  0
 18 20  2  0  0  0
 18 41  1  0  0  0
 19 21  1  0  0  0
 19 22  2  0  0  0
 20 23  1  0  0  0
 20 22  1  0  0  0
 21 24  2  0  0  0
 21 25  1  0  0  0
 22 42  1  0  0  0
 23 26  2  0  0  0
 23 27  1  0  0  0
 24 28  1  0  0  0
 24 43  1  0  0  0
 25 29  2  0  0  0
 25 44  1  0  0  0
 28 30  2  0  0  0
 28 45  1  0  0  0
 29 30  1  0  0  0
 29 46  1  0  0  0
 30 31  1  0  0  0
 31 32  1  0  0  0
 31 47  1  0  0  0
 31 48  1  0  0  0
 32 33  2  0  0  0
 32 34  1  0  0  0
 34 49  1  0  0  0
 34 50  1  0  0  0
M  CHG  1  27  -1
M  END
> <i_epik_Tot_Q>
-1

> <i_epik_Tot_abs_Q>
1

> <i_lp_mmshare_version>
62121

> <i_m_Source_File_Index>
65

> <i_phase_Input_Structure_Number>
85

> <i_phase_Reference_Structure>
41

> <i_phase_Structure_Number>
85

> <Molecule Name>
116

> <Rotatable Bonds>
7

> <i_f3d_flags>
0

> <b_lp_Chiralities_Consistent>
1

> <r_canvas_IC50_human_P2Y14R,_nM>
1290

> <r_canvas_pIC50>
5.88941028970075

> <r_epik_Charging_Adjusted_Penalty>
0.000199790436780123

> <r_epik_Ionization_Penalty>
  0.0002

> <r_epik_Ionization_Penalty_Charging>
  0.0002

> <r_epik_Ionization_Penalty_Neutral>
  0.0000

> <r_epik_State_Penalty>
  0.0000

> <r_lp_Energy>
47.269698

> <r_lp_tautomer_probability>
1

> <r_phase_Similarity_to_Reference>
0.825759489089326

> <s_canvas_CHEMBLID>
CHEMBL4302471

> <s_canvas_Compound>
16

> <s_canvas_Paper>
Jung2021

> <s_epik_cmdline>
J2VwaWtfcHl0aG9uJywgJy1waCcsICc3LjAnLCAnLXRuJywgJzgnLCAnLW1hJywgJzUwMCcsICctaW1hZScsICc8aW5maWxlLm1hZT4nLCAnLW9tYWUnLCAnPG91dGZpbGUubWFlPic=

> <s_epik_input>
RkMoRikoRiljMVtjSF1bY0hdYyhbY0hdW2NIXTEpLWMybm5uKFtjSF0yKS1jM1tjSF1jKFtjSF1jKFtjSF0zKUMoPU8pW09IXSktYzRbY0hdW2NIXWMoW2NIXVtjSF00KVtDSDJdQyg9TylbTkgyXQ==

> <s_lp_Force_Field>
S-OPLS

> <s_lp_Variant>
116-1

> <s_m_Source_File>
database-aligned.sdf

> <s_m_Source_Path>
/data/matteo/P2Y14-antagonists-piperidineDerivatives-Wen2023/14052024-optimized-alignment

> <s_m_entry_id>
65

> <s_m_entry_name>
database-aligned.65

> <s_m_job_name>
align_ligands_1

> <s_phase_Alignment_Method>
snapped core

> <s_phase_Alignment_Reason>


> <s_phase_Core_SMARTS>
a1aaaaa1-a2aa(aa2)-a3aaaa(a3)-a4aaaaa4

$$$$
117
                    3D
 Schrodinger Suite 2023-2.
 50 53  0  0  1  0            999 V2000
   -4.8466   -3.4241    1.6134 F   0  0  0  0  0  0
   -5.0120   -2.1173    1.8111 C   0  0  0  0  0  0
   -5.9312   -1.6407    0.9732 F   0  0  0  0  0  0
   -5.3787   -1.8881    3.0709 F   0  0  0  0  0  0
   -3.7102   -1.4192    1.5505 C   0  0  0  0  0  0
   -2.5092   -2.0790    1.7828 C   0  0  0  0  0  0
   -3.7049   -0.1126    1.0769 C   0  0  0  0  0  0
   -1.3030   -1.4321    1.5414 C   0  0  0  0  0  0
   -2.4987    0.5343    0.8355 C   0  0  0  0  0  0
   -1.2977   -0.1255    1.0677 C   0  0  0  0  0  0
    0.0041    0.5726    0.8072 C   0  0  0  0  0  0
    0.0745    1.8131    0.3572 N   0  0  0  0  0  0
    1.2788    0.0570    0.9868 C   0  0  0  0  0  0
    1.4087    2.1505    0.2272 N   0  0  0  0  0  0
    2.1133    1.0787    0.6116 N   0  0  0  0  0  0
    3.5729    1.0430    0.6162 C   0  0  0  0  0  0
    4.2688   -0.0378   -0.0014 C   0  0  0  0  0  0
    4.3095    2.0826    1.2307 C   0  0  0  0  0  0
    5.6959   -0.0428    0.0147 C   0  0  0  0  0  0
    5.7140    2.0823    1.2549 C   0  0  0  0  0  0
    6.4845   -1.1328   -0.6109 C   0  0  0  0  0  0
    6.3738    1.0063    0.6388 C   0  0  0  0  0  0
    6.4824    3.1926    1.9177 C   0  0  0  0  0  0
    6.8196   -1.0713   -1.9653 C   0  0  0  0  0  0
    6.8885   -2.2318    0.1496 C   0  0  0  0  0  0
    7.7329    3.1460    1.9172 O   0  0  0  0  0  0
    5.8483    4.1301    2.4513 O   0  5  0  0  0  0
    7.5469   -2.1010   -2.5562 C   0  0  0  0  0  0
    7.6134   -3.2639   -0.4389 C   0  0  0  0  0  0
    7.9469   -3.2050   -1.7964 C   0  0  0  0  0  0
    8.7261   -4.3345   -2.4414 C   0  0  0  0  0  0
    7.8027   -5.4190   -3.0070 C   0  0  0  0  0  0
    8.5451   -6.5211   -3.6360 C   0  0  0  0  0  0
    9.1293   -7.3882   -4.1310 N   0  0  0  0  0  0
   -2.5036   -3.0925    2.1561 H   0  0  0  0  0  0
   -4.6331    0.4100    0.8987 H   0  0  0  0  0  0
   -0.3799   -1.9597    1.7288 H   0  0  0  0  0  0
   -2.5152    1.5502    0.4689 H   0  0  0  0  0  0
    1.6399   -0.8999    1.3332 H   0  0  0  0  0  0
    3.7253   -0.8398   -0.4792 H   0  0  0  0  0  0
    3.7662    2.8933    1.6947 H   0  0  0  0  0  0
    7.4543    0.9798    0.6403 H   0  0  0  0  0  0
    6.5109   -0.2240   -2.5603 H   0  0  0  0  0  0
    6.6335   -2.2867    1.1980 H   0  0  0  0  0  0
    7.7960   -2.0444   -3.6058 H   0  0  0  0  0  0
    7.9149   -4.1120    0.1583 H   0  0  0  0  0  0
    9.3544   -3.9301   -3.2360 H   0  0  0  0  0  0
    9.4035   -4.7701   -1.7057 H   0  0  0  0  0  0
    7.1822   -5.8429   -2.2172 H   0  0  0  0  0  0
    7.1327   -4.9977   -3.7569 H   0  0  0  0  0  0
  1  2  1  0  0  0
  2  3  1  0  0  0
  2  4  1  0  0  0
  2  5  1  0  0  0
  5  6  2  0  0  0
  5  7  1  0  0  0
  6  8  1  0  0  0
  6 35  1  0  0  0
  7  9  2  0  0  0
  7 36  1  0  0  0
  8 10  2  0  0  0
  8 37  1  0  0  0
  9 10  1  0  0  0
  9 38  1  0  0  0
 10 11  1  0  0  0
 11 12  1  0  0  0
 11 13  2  0  0  0
 12 14  2  0  0  0
 13 15  1  0  0  0
 13 39  1  0  0  0
 14 15  1  0  0  0
 15 16  1  0  0  0
 16 17  2  0  0  0
 16 18  1  0  0  0
 17 19  1  0  0  0
 17 40  1  0  0  0
 18 20  2  0  0  0
 18 41  1  0  0  0
 19 21  1  0  0  0
 19 22  2  0  0  0
 20 23  1  0  0  0
 20 22  1  0  0  0
 21 24  2  0  0  0
 21 25  1  0  0  0
 22 42  1  0  0  0
 23 26  2  0  0  0
 23 27  1  0  0  0
 24 28  1  0  0  0
 24 43  1  0  0  0
 25 29  2  0  0  0
 25 44  1  0  0  0
 28 30  2  0  0  0
 28 45  1  0  0  0
 29 30  1  0  0  0
 29 46  1  0  0  0
 30 31  1  0  0  0
 31 32  1  0  0  0
 31 47  1  0  0  0
 31 48  1  0  0  0
 32 33  1  0  0  0
 32 49  1  0  0  0
 32 50  1  0  0  0
 33 34  3  0  0  0
M  CHG  1  27  -1
M  END
> <i_epik_Tot_Q>
-1

> <i_epik_Tot_abs_Q>
1

> <i_lp_mmshare_version>
62121

> <i_m_Source_File_Index>
66

> <i_phase_Input_Structure_Number>
86

> <i_phase_Reference_Structure>
41

> <i_phase_Structure_Number>
86

> <Molecule Name>
117

> <Rotatable Bonds>
7

> <i_f3d_flags>
0

> <b_lp_Chiralities_Consistent>
1

> <r_canvas_IC50_human_P2Y14R,_nM>
17800

> <r_canvas_pIC50>
4.74957999769111

> <r_epik_Charging_Adjusted_Penalty>
0.000199790436780123

> <r_epik_Ionization_Penalty>
  0.0002

> <r_epik_Ionization_Penalty_Charging>
  0.0002

> <r_epik_Ionization_Penalty_Neutral>
  0.0000

> <r_epik_State_Penalty>
  0.0000

> <r_lp_Energy>
44.927358

> <r_lp_tautomer_probability>
1

> <r_phase_Similarity_to_Reference>
0.838102698053049

> <s_canvas_CHEMBLID>
CHEMBL4301976

> <s_canvas_Compound>
17

> <s_canvas_Paper>
Jung2021

> <s_epik_cmdline>
J2VwaWtfcHl0aG9uJywgJy1waCcsICc3LjAnLCAnLXRuJywgJzgnLCAnLW1hJywgJzUwMCcsICctaW1hZScsICc8aW5maWxlLm1hZT4nLCAnLW9tYWUnLCAnPG91dGZpbGUubWFlPic=

> <s_epik_input>
RkMoRikoRiljMVtjSF1bY0hdYyhbY0hdW2NIXTEpLWMybm5uKFtjSF0yKS1jM1tjSF1jKFtjSF1jKFtjSF0zKUMoPU8pW09IXSktYzRbY0hdW2NIXWMoW2NIXVtjSF00KVtDSDJdW0NIMl1DI04=

> <s_lp_Force_Field>
S-OPLS

> <s_lp_Variant>
117-1

> <s_m_Source_File>
database-aligned.sdf

> <s_m_Source_Path>
/data/matteo/P2Y14-antagonists-piperidineDerivatives-Wen2023/14052024-optimized-alignment

> <s_m_entry_id>
66

> <s_m_entry_name>
database-aligned.66

> <s_m_job_name>
align_ligands_1

> <s_phase_Alignment_Method>
snapped core

> <s_phase_Alignment_Reason>


> <s_phase_Core_SMARTS>
a1aaaaa1-a2aa(aa2)-a3aaaa(a3)-a4aaaaa4

$$$$
118
                    3D
 Schrodinger Suite 2023-2.
 55 58  0  0  1  0            999 V2000
   -4.8466   -3.4241    1.6134 F   0  0  0  0  0  0
   -5.0120   -2.1173    1.8111 C   0  0  0  0  0  0
   -5.9312   -1.6407    0.9732 F   0  0  0  0  0  0
   -5.3787   -1.8881    3.0709 F   0  0  0  0  0  0
   -3.7102   -1.4192    1.5505 C   0  0  0  0  0  0
   -3.7049   -0.1126    1.0769 C   0  0  0  0  0  0
   -2.5092   -2.0790    1.7828 C   0  0  0  0  0  0
   -2.4987    0.5343    0.8355 C   0  0  0  0  0  0
   -1.3030   -1.4321    1.5414 C   0  0  0  0  0  0
   -1.2977   -0.1255    1.0677 C   0  0  0  0  0  0
    0.0041    0.5726    0.8072 C   0  0  0  0  0  0
    0.0745    1.8131    0.3572 N   0  0  0  0  0  0
    1.2788    0.0570    0.9868 C   0  0  0  0  0  0
    1.4087    2.1505    0.2272 N   0  0  0  0  0  0
    2.1133    1.0787    0.6116 N   0  0  0  0  0  0
    3.5729    1.0430    0.6162 C   0  0  0  0  0  0
    4.2688   -0.0378   -0.0014 C   0  0  0  0  0  0
    4.3095    2.0826    1.2307 C   0  0  0  0  0  0
    5.6959   -0.0428    0.0147 C   0  0  0  0  0  0
    5.7140    2.0823    1.2549 C   0  0  0  0  0  0
    6.4845   -1.1328   -0.6109 C   0  0  0  0  0  0
    6.3738    1.0063    0.6388 C   0  0  0  0  0  0
    6.4824    3.1926    1.9177 C   0  0  0  0  0  0
    6.8885   -2.2318    0.1496 C   0  0  0  0  0  0
    6.8196   -1.0713   -1.9653 C   0  0  0  0  0  0
    7.7329    3.1460    1.9172 O   0  0  0  0  0  0
    5.8483    4.1301    2.4513 O   0  5  0  0  0  0
    7.6134   -3.2639   -0.4389 C   0  0  0  0  0  0
    7.5469   -2.1010   -2.5562 C   0  0  0  0  0  0
    7.9469   -3.2050   -1.7964 C   0  0  0  0  0  0
    8.7343   -4.3308   -2.4396 C   0  0  0  0  0  0
    7.8181   -5.4241   -3.0133 C   0  0  0  0  0  0
    8.5853   -6.5597   -3.7071 C   0  0  0  0  0  0
    9.3155   -7.3984   -2.7407 N   0  3  0  0  0  0
   -4.6368    0.4027    0.8955 H   0  0  0  0  0  0
   -2.4967   -3.0941    2.1507 H   0  0  0  0  0  0
   -2.5152    1.5498    0.4678 H   0  0  0  0  0  0
   -0.3798   -1.9602    1.7276 H   0  0  0  0  0  0
    1.6399   -0.8998    1.3331 H   0  0  0  0  0  0
    3.7253   -0.8400   -0.4789 H   0  0  0  0  0  0
    3.7661    2.8933    1.6948 H   0  0  0  0  0  0
    7.4544    0.9795    0.6402 H   0  0  0  0  0  0
    6.6335   -2.2863    1.1981 H   0  0  0  0  0  0
    6.5113   -0.2237   -2.5600 H   0  0  0  0  0  0
    7.9158   -4.1109    0.1594 H   0  0  0  0  0  0
    7.7973   -2.0431   -3.6054 H   0  0  0  0  0  0
    9.3631   -3.9175   -3.2295 H   0  0  0  0  0  0
    9.4136   -4.7543   -1.6987 H   0  0  0  0  0  0
    7.1830   -5.8331   -2.2259 H   0  0  0  0  0  0
    7.1441   -4.9680   -3.7395 H   0  0  0  0  0  0
    7.8864   -7.1988   -4.2475 H   0  0  0  0  0  0
    9.2844   -6.1602   -4.4425 H   0  0  0  0  0  0
    9.7946   -8.1393   -3.2325 H   0  0  0  0  0  0
    8.6632   -7.8000   -2.0820 H   0  0  0  0  0  0
    9.9902   -6.8335   -2.2447 H   0  0  0  0  0  0
  1  2  1  0  0  0
  2  3  1  0  0  0
  2  4  1  0  0  0
  2  5  1  0  0  0
  5  6  2  0  0  0
  5  7  1  0  0  0
  6  8  1  0  0  0
  6 35  1  0  0  0
  7  9  2  0  0  0
  7 36  1  0  0  0
  8 10  2  0  0  0
  8 37  1  0  0  0
  9 10  1  0  0  0
  9 38  1  0  0  0
 10 11  1  0  0  0
 11 12  1  0  0  0
 11 13  2  0  0  0
 12 14  2  0  0  0
 13 15  1  0  0  0
 13 39  1  0  0  0
 14 15  1  0  0  0
 15 16  1  0  0  0
 16 17  2  0  0  0
 16 18  1  0  0  0
 17 19  1  0  0  0
 17 40  1  0  0  0
 18 20  2  0  0  0
 18 41  1  0  0  0
 19 21  1  0  0  0
 19 22  2  0  0  0
 20 23  1  0  0  0
 20 22  1  0  0  0
 21 24  2  0  0  0
 21 25  1  0  0  0
 22 42  1  0  0  0
 23 26  2  0  0  0
 23 27  1  0  0  0
 24 28  1  0  0  0
 24 43  1  0  0  0
 25 29  2  0  0  0
 25 44  1  0  0  0
 28 30  2  0  0  0
 28 45  1  0  0  0
 29 30  1  0  0  0
 29 46  1  0  0  0
 30 31  1  0  0  0
 31 32  1  0  0  0
 31 47  1  0  0  0
 31 48  1  0  0  0
 32 33  1  0  0  0
 32 49  1  0  0  0
 32 50  1  0  0  0
 33 34  1  0  0  0
 33 51  1  0  0  0
 33 52  1  0  0  0
 34 53  1  0  0  0
 34 54  1  0  0  0
 34 55  1  0  0  0
M  CHG  2  27  -1  34   1
M  END
> <i_epik_Tot_Q>
0

> <i_epik_Tot_abs_Q>
2

> <i_lp_mmshare_version>
62121

> <i_m_Source_File_Index>
67

> <i_phase_Input_Structure_Number>
87

> <i_phase_Reference_Structure>
41

> <i_phase_Structure_Number>
87

> <Molecule Name>
118

> <Rotatable Bonds>
8

> <i_f3d_flags>
0

> <b_lp_Chiralities_Consistent>
1

> <r_canvas_IC50_human_P2Y14R,_nM>
292

> <r_canvas_pIC50>
6.53461714855158

> <r_epik_Charging_Adjusted_Penalty>
0.0012557217223527

> <r_epik_Ionization_Penalty>
  0.0007

> <r_epik_Ionization_Penalty_Charging>
  0.0007

> <r_epik_Ionization_Penalty_Neutral>
  0.0000

> <r_epik_State_Penalty>
  0.0005

> <r_lp_Energy>
48.187818

> <r_lp_tautomer_probability>
1

> <r_phase_Similarity_to_Reference>
0.853998011553478

> <s_canvas_CHEMBLID>
CHEMBL4300528

> <s_canvas_Compound>
18

> <s_canvas_Paper>
Jung2021

> <s_epik_cmdline>
J2VwaWtfcHl0aG9uJywgJy1waCcsICc3LjAnLCAnLXRuJywgJzgnLCAnLW1hJywgJzUwMCcsICctaW1hZScsICc8aW5maWxlLm1hZT4nLCAnLW9tYWUnLCAnPG91dGZpbGUubWFlPic=

> <s_epik_input>
RkMoRikoRiljMVtjSF1bY0hdYyhbY0hdW2NIXTEpLWMybm5uKFtjSF0yKS1jM1tjSF1jKFtjSF1jKFtjSF0zKUMoPU8pW09IXSktYzRbY0hdW2NIXWMoW2NIXVtjSF00KVtDSDJdW0NIMl1bQ0gyXVtOSDJd

> <s_lp_Force_Field>
S-OPLS

> <s_lp_Variant>
118-1

> <s_m_Source_File>
database-aligned.sdf

> <s_m_Source_Path>
/data/matteo/P2Y14-antagonists-piperidineDerivatives-Wen2023/14052024-optimized-alignment

> <s_m_entry_id>
67

> <s_m_entry_name>
database-aligned.67

> <s_m_job_name>
align_ligands_1

> <s_phase_Alignment_Method>
snapped core

> <s_phase_Alignment_Reason>


> <s_phase_Core_SMARTS>
a1aaaaa1-a2aa(aa2)-a3aaaa(a3)-a4aaaaa4

$$$$
119
                    3D
 Schrodinger Suite 2023-2.
 51 54  0  0  1  0            999 V2000
   -4.8466   -3.4241    1.6134 F   0  0  0  0  0  0
   -5.0120   -2.1173    1.8111 C   0  0  0  0  0  0
   -5.9312   -1.6407    0.9732 F   0  0  0  0  0  0
   -5.3787   -1.8881    3.0709 F   0  0  0  0  0  0
   -3.7102   -1.4192    1.5505 C   0  0  0  0  0  0
   -3.7049   -0.1126    1.0769 C   0  0  0  0  0  0
   -2.5092   -2.0790    1.7828 C   0  0  0  0  0  0
   -2.4987    0.5343    0.8355 C   0  0  0  0  0  0
   -1.3030   -1.4321    1.5414 C   0  0  0  0  0  0
   -1.2977   -0.1255    1.0677 C   0  0  0  0  0  0
    0.0041    0.5726    0.8072 C   0  0  0  0  0  0
    0.0745    1.8131    0.3572 N   0  0  0  0  0  0
    1.2788    0.0570    0.9868 C   0  0  0  0  0  0
    1.4087    2.1505    0.2272 N   0  0  0  0  0  0
    2.1133    1.0787    0.6116 N   0  0  0  0  0  0
    3.5729    1.0430    0.6162 C   0  0  0  0  0  0
    4.2688   -0.0378   -0.0014 C   0  0  0  0  0  0
    4.3095    2.0826    1.2307 C   0  0  0  0  0  0
    5.6959   -0.0428    0.0147 C   0  0  0  0  0  0
    5.7140    2.0823    1.2549 C   0  0  0  0  0  0
    6.4845   -1.1328   -0.6109 C   0  0  0  0  0  0
    6.3738    1.0063    0.6388 C   0  0  0  0  0  0
    6.4824    3.1926    1.9177 C   0  0  0  0  0  0
    6.8885   -2.2318    0.1496 C   0  0  0  0  0  0
    6.8196   -1.0713   -1.9653 C   0  0  0  0  0  0
    7.7329    3.1460    1.9172 O   0  0  0  0  0  0
    5.8483    4.1301    2.4513 O   0  5  0  0  0  0
    7.6134   -3.2639   -0.4389 C   0  0  0  0  0  0
    7.5469   -2.1010   -2.5562 C   0  0  0  0  0  0
    7.9469   -3.2050   -1.7964 C   0  0  0  0  0  0
    8.7030   -4.2819   -2.4139 C   0  0  0  0  0  0
    9.3433   -5.1766   -2.9444 C   0  0  0  0  0  0
   10.1244   -6.2396   -3.5943 C   0  0  0  0  0  0
   10.0304   -7.4183   -2.7184 N   0  3  0  0  0  0
   -4.6332    0.4101    0.8991 H   0  0  0  0  0  0
   -2.5036   -3.0924    2.1564 H   0  0  0  0  0  0
   -2.5152    1.5503    0.4690 H   0  0  0  0  0  0
   -0.3800   -1.9596    1.7289 H   0  0  0  0  0  0
    1.6397   -0.8997    1.3332 H   0  0  0  0  0  0
    3.7253   -0.8398   -0.4791 H   0  0  0  0  0  0
    3.7664    2.8935    1.6949 H   0  0  0  0  0  0
    7.4544    0.9795    0.6402 H   0  0  0  0  0  0
    6.6338   -2.2862    1.1981 H   0  0  0  0  0  0
    6.5112   -0.2237   -2.5601 H   0  0  0  0  0  0
    7.9155   -4.1093    0.1626 H   0  0  0  0  0  0
    7.7965   -2.0392   -3.6058 H   0  0  0  0  0  0
    9.7106   -6.4541   -4.5797 H   0  0  0  0  0  0
   11.1610   -5.9201   -3.7042 H   0  0  0  0  0  0
   10.5527   -8.1824   -3.1226 H   0  0  0  0  0  0
    9.0621   -7.6879   -2.6197 H   0  0  0  0  0  0
   10.4115   -7.1938   -1.8102 H   0  0  0  0  0  0
  1  2  1  0  0  0
  2  3  1  0  0  0
  2  4  1  0  0  0
  2  5  1  0  0  0
  5  6  2  0  0  0
  5  7  1  0  0  0
  6  8  1  0  0  0
  6 35  1  0  0  0
  7  9  2  0  0  0
  7 36  1  0  0  0
  8 10  2  0  0  0
  8 37  1  0  0  0
  9 10  1  0  0  0
  9 38  1  0  0  0
 10 11  1  0  0  0
 11 12  1  0  0  0
 11 13  2  0  0  0
 12 14  2  0  0  0
 13 15  1  0  0  0
 13 39  1  0  0  0
 14 15  1  0  0  0
 15 16  1  0  0  0
 16 17  2  0  0  0
 16 18  1  0  0  0
 17 19  1  0  0  0
 17 40  1  0  0  0
 18 20  2  0  0  0
 18 41  1  0  0  0
 19 21  1  0  0  0
 19 22  2  0  0  0
 20 23  1  0  0  0
 20 22  1  0  0  0
 21 24  2  0  0  0
 21 25  1  0  0  0
 22 42  1  0  0  0
 23 26  2  0  0  0
 23 27  1  0  0  0
 24 28  1  0  0  0
 24 43  1  0  0  0
 25 29  2  0  0  0
 25 44  1  0  0  0
 28 30  2  0  0  0
 28 45  1  0  0  0
 29 30  1  0  0  0
 29 46  1  0  0  0
 30 31  1  0  0  0
 31 32  3  0  0  0
 32 33  1  0  0  0
 33 34  1  0  0  0
 33 47  1  0  0  0
 33 48  1  0  0  0
 34 49  1  0  0  0
 34 50  1  0  0  0
 34 51  1  0  0  0
M  CHG  2  27  -1  34   1
M  END
> <i_epik_Tot_Q>
0

> <i_epik_Tot_abs_Q>
2

> <i_lp_mmshare_version>
62121

> <i_m_Source_File_Index>
68

> <i_phase_Input_Structure_Number>
88

> <i_phase_Reference_Structure>
41

> <i_phase_Structure_Number>
88

> <Molecule Name>
119

> <Rotatable Bonds>
6

> <i_f3d_flags>
0

> <b_lp_Chiralities_Consistent>
1

> <r_canvas_IC50_human_P2Y14R,_nM>
308

> <r_canvas_pIC50>
6.51144928349956

> <r_epik_Charging_Adjusted_Penalty>
0.0570987203807639

> <r_epik_Ionization_Penalty>
  0.0286

> <r_epik_Ionization_Penalty_Charging>
  0.0286

> <r_epik_Ionization_Penalty_Neutral>
  0.0000

> <r_epik_State_Penalty>
  0.0285

> <r_lp_Energy>
47.563074

> <r_lp_tautomer_probability>
1

> <r_phase_Similarity_to_Reference>
0.851649613146961

> <s_canvas_CHEMBLID>
CHEMBL4300426

> <s_canvas_Compound>
19

> <s_canvas_Paper>
Jung2021

> <s_epik_cmdline>
J2VwaWtfcHl0aG9uJywgJy1waCcsICc3LjAnLCAnLXRuJywgJzgnLCAnLW1hJywgJzUwMCcsICctaW1hZScsICc8aW5maWxlLm1hZT4nLCAnLW9tYWUnLCAnPG91dGZpbGUubWFlPic=

> <s_epik_input>
RkMoRikoRiljMVtjSF1bY0hdYyhbY0hdW2NIXTEpLWMybm5uKFtjSF0yKS1jM1tjSF1jKFtjSF1jKFtjSF0zKUMoPU8pW09IXSktYzRbY0hdW2NIXWMoW2NIXVtjSF00KUMjQ1tDSDJdW05IMl0=

> <s_lp_Force_Field>
S-OPLS

> <s_lp_Variant>
119-1

> <s_m_Source_File>
database-aligned.sdf

> <s_m_Source_Path>
/data/matteo/P2Y14-antagonists-piperidineDerivatives-Wen2023/14052024-optimized-alignment

> <s_m_entry_id>
68

> <s_m_entry_name>
database-aligned.68

> <s_m_job_name>
align_ligands_1

> <s_phase_Alignment_Method>
snapped core

> <s_phase_Alignment_Reason>


> <s_phase_Core_SMARTS>
a1aaaaa1-a2aa(aa2)-a3aaaa(a3)-a4aaaaa4

$$$$
121
                    3D
 Schrodinger Suite 2023-2.
 56 59  0  0  1  0            999 V2000
   -4.8466   -3.4241    1.6134 F   0  0  0  0  0  0
   -5.0120   -2.1173    1.8111 C   0  0  0  0  0  0
   -5.9312   -1.6407    0.9732 F   0  0  0  0  0  0
   -5.3787   -1.8881    3.0709 F   0  0  0  0  0  0
   -3.7102   -1.4192    1.5505 C   0  0  0  0  0  0
   -3.7049   -0.1126    1.0769 C   0  0  0  0  0  0
   -2.5092   -2.0790    1.7828 C   0  0  0  0  0  0
   -2.4987    0.5343    0.8355 C   0  0  0  0  0  0
   -1.3030   -1.4321    1.5414 C   0  0  0  0  0  0
   -1.2977   -0.1255    1.0677 C   0  0  0  0  0  0
    0.0041    0.5726    0.8072 C   0  0  0  0  0  0
    0.0745    1.8131    0.3572 N   0  0  0  0  0  0
    1.2788    0.0570    0.9868 C   0  0  0  0  0  0
    1.4087    2.1505    0.2272 N   0  0  0  0  0  0
    2.1133    1.0787    0.6116 N   0  0  0  0  0  0
    3.5729    1.0430    0.6162 C   0  0  0  0  0  0
    4.2688   -0.0378   -0.0014 C   0  0  0  0  0  0
    4.3095    2.0826    1.2307 C   0  0  0  0  0  0
    5.6959   -0.0428    0.0147 C   0  0  0  0  0  0
    5.7140    2.0823    1.2549 C   0  0  0  0  0  0
    6.4845   -1.1328   -0.6109 C   0  0  0  0  0  0
    6.3738    1.0063    0.6388 C   0  0  0  0  0  0
    6.4824    3.1926    1.9177 C   0  0  0  0  0  0
    6.8196   -1.0713   -1.9653 C   0  0  0  0  0  0
    6.8885   -2.2318    0.1496 C   0  0  0  0  0  0
    7.7329    3.1460    1.9172 O   0  0  0  0  0  0
    5.8483    4.1301    2.4513 O   0  5  0  0  0  0
    7.5469   -2.1010   -2.5562 C   0  0  0  0  0  0
    7.6134   -3.2639   -0.4389 C   0  0  0  0  0  0
    7.9469   -3.2050   -1.7964 C   0  0  0  0  0  0
    8.7716   -4.3126   -2.4277 C   0  0  0  0  0  0
    7.9935   -5.6277   -2.5818 C   0  0  0  0  0  0
    8.8481   -6.7360   -3.2187 C   0  0  0  0  0  0
    8.1173   -8.0814   -3.3341 C   0  0  0  0  0  0
    7.0694   -7.9987   -4.2769 O   0  0  0  0  0  0
   -4.6330    0.4111    0.9010 H   0  0  0  0  0  0
   -2.5034   -3.0916    2.1584 H   0  0  0  0  0  0
   -2.5151    1.5504    0.4695 H   0  0  0  0  0  0
   -0.3799   -1.9595    1.7293 H   0  0  0  0  0  0
    1.6399   -0.8998    1.3330 H   0  0  0  0  0  0
    3.7256   -0.8401   -0.4793 H   0  0  0  0  0  0
    3.7663    2.8934    1.6948 H   0  0  0  0  0  0
    7.4543    0.9796    0.6403 H   0  0  0  0  0  0
    6.5123   -0.2234   -2.5600 H   0  0  0  0  0  0
    6.6353   -2.2859    1.1985 H   0  0  0  0  0  0
    7.8021   -2.0384   -3.6039 H   0  0  0  0  0  0
    7.9244   -4.1072    0.1604 H   0  0  0  0  0  0
    9.1355   -3.9840   -3.4022 H   0  0  0  0  0  0
    9.6566   -4.4745   -1.8110 H   0  0  0  0  0  0
    7.6409   -5.9614   -1.6052 H   0  0  0  0  0  0
    7.1046   -5.4528   -3.1891 H   0  0  0  0  0  0
    9.1954   -6.4203   -4.2034 H   0  0  0  0  0  0
    9.7445   -6.8796   -2.6141 H   0  0  0  0  0  0
    8.8113   -8.8571   -3.6586 H   0  0  0  0  0  0
    7.7167   -8.3908   -2.3683 H   0  0  0  0  0  0
    6.6475   -8.8427   -4.3318 H   0  0  0  0  0  0
  1  2  1  0  0  0
  2  3  1  0  0  0
  2  4  1  0  0  0
  2  5  1  0  0  0
  5  6  2  0  0  0
  5  7  1  0  0  0
  6  8  1  0  0  0
  6 36  1  0  0  0
  7  9  2  0  0  0
  7 37  1  0  0  0
  8 10  2  0  0  0
  8 38  1  0  0  0
  9 10  1  0  0  0
  9 39  1  0  0  0
 10 11  1  0  0  0
 11 12  1  0  0  0
 11 13  2  0  0  0
 12 14  2  0  0  0
 13 15  1  0  0  0
 13 40  1  0  0  0
 14 15  1  0  0  0
 15 16  1  0  0  0
 16 17  2  0  0  0
 16 18  1  0  0  0
 17 19  1  0  0  0
 17 41  1  0  0  0
 18 20  2  0  0  0
 18 42  1  0  0  0
 19 21  1  0  0  0
 19 22  2  0  0  0
 20 23  1  0  0  0
 20 22  1  0  0  0
 21 24  2  0  0  0
 21 25  1  0  0  0
 22 43  1  0  0  0
 23 26  2  0  0  0
 23 27  1  0  0  0
 24 28  1  0  0  0
 24 44  1  0  0  0
 25 29  2  0  0  0
 25 45  1  0  0  0
 28 30  2  0  0  0
 28 46  1  0  0  0
 29 30  1  0  0  0
 29 47  1  0  0  0
 30 31  1  0  0  0
 31 32  1  0  0  0
 31 48  1  0  0  0
 31 49  1  0  0  0
 32 33  1  0  0  0
 32 50  1  0  0  0
 32 51  1  0  0  0
 33 34  1  0  0  0
 33 52  1  0  0  0
 33 53  1  0  0  0
 34 35  1  0  0  0
 34 54  1  0  0  0
 34 55  1  0  0  0
 35 56  1  0  0  0
M  CHG  1  27  -1
M  END
> <i_epik_Tot_Q>
-1

> <i_epik_Tot_abs_Q>
1

> <i_lp_mmshare_version>
62121

> <i_m_Source_File_Index>
69

> <i_phase_Input_Structure_Number>
89

> <i_phase_Reference_Structure>
41

> <i_phase_Structure_Number>
89

> <Molecule Name>
121

> <Rotatable Bonds>
9

> <i_f3d_flags>
0

> <b_lp_Chiralities_Consistent>
1

> <r_canvas_IC50_human_P2Y14R,_nM>
9220

> <r_canvas_pIC50>
5.03526907894637

> <r_epik_Charging_Adjusted_Penalty>
0.000199790436780123

> <r_epik_Ionization_Penalty>
  0.0002

> <r_epik_Ionization_Penalty_Charging>
  0.0002

> <r_epik_Ionization_Penalty_Neutral>
  0.0000

> <r_epik_State_Penalty>
  0.0000

> <r_lp_Energy>
47.618228

> <r_lp_tautomer_probability>
1

> <r_phase_Similarity_to_Reference>
0.862208970534576

> <s_canvas_CHEMBLID>
CHEMBL4300224

> <s_canvas_Compound>
21

> <s_canvas_Paper>
Jung2021

> <s_epik_cmdline>
J2VwaWtfcHl0aG9uJywgJy1waCcsICc3LjAnLCAnLXRuJywgJzgnLCAnLW1hJywgJzUwMCcsICctaW1hZScsICc8aW5maWxlLm1hZT4nLCAnLW9tYWUnLCAnPG91dGZpbGUubWFlPic=

> <s_epik_input>
RkMoRikoRiljMVtjSF1bY0hdYyhbY0hdW2NIXTEpLWMybm5uKFtjSF0yKS1jM1tjSF1jKFtjSF1jKFtjSF0zKUMoPU8pW09IXSktYzRbY0hdW2NIXWMoW2NIXVtjSF00KVtDSDJdW0NIMl1bQ0gyXVtDSDJdW09IXQ==

> <s_lp_Force_Field>
S-OPLS

> <s_lp_Variant>
121-1

> <s_m_Source_File>
database-aligned.sdf

> <s_m_Source_Path>
/data/matteo/P2Y14-antagonists-piperidineDerivatives-Wen2023/14052024-optimized-alignment

> <s_m_entry_id>
69

> <s_m_entry_name>
database-aligned.69

> <s_m_job_name>
align_ligands_1

> <s_phase_Alignment_Method>
snapped core

> <s_phase_Alignment_Reason>


> <s_phase_Core_SMARTS>
a1aaaaa1-a2aa(aa2)-a3aaaa(a3)-a4aaaaa4

$$$$
122
                    3D
 Schrodinger Suite 2023-2.
 52 56  0  0  1  0            999 V2000
   -4.8466   -3.4241    1.6134 F   0  0  0  0  0  0
   -5.0120   -2.1173    1.8111 C   0  0  0  0  0  0
   -5.9312   -1.6407    0.9732 F   0  0  0  0  0  0
   -5.3787   -1.8881    3.0709 F   0  0  0  0  0  0
   -3.7102   -1.4192    1.5505 C   0  0  0  0  0  0
   -2.5092   -2.0790    1.7828 C   0  0  0  0  0  0
   -3.7049   -0.1126    1.0769 C   0  0  0  0  0  0
   -1.3030   -1.4321    1.5414 C   0  0  0  0  0  0
   -2.4987    0.5343    0.8355 C   0  0  0  0  0  0
   -1.2977   -0.1255    1.0677 C   0  0  0  0  0  0
    0.0041    0.5726    0.8072 C   0  0  0  0  0  0
    0.0745    1.8131    0.3572 N   0  0  0  0  0  0
    1.2788    0.0570    0.9868 C   0  0  0  0  0  0
    1.4087    2.1505    0.2272 N   0  0  0  0  0  0
    2.1133    1.0787    0.6116 N   0  0  0  0  0  0
    3.5729    1.0430    0.6162 C   0  0  0  0  0  0
    4.2688   -0.0378   -0.0014 C   0  0  0  0  0  0
    4.3095    2.0826    1.2307 C   0  0  0  0  0  0
    5.6959   -0.0428    0.0147 C   0  0  0  0  0  0
    5.7140    2.0823    1.2549 C   0  0  0  0  0  0
    6.4845   -1.1328   -0.6109 C   0  0  0  0  0  0
    6.3738    1.0063    0.6388 C   0  0  0  0  0  0
    6.4824    3.1926    1.9177 C   0  0  0  0  0  0
    6.8196   -1.0713   -1.9653 C   0  0  0  0  0  0
    6.8885   -2.2318    0.1496 C   0  0  0  0  0  0
    7.7329    3.1460    1.9172 O   0  0  0  0  0  0
    5.8483    4.1301    2.4513 O   0  5  0  0  0  0
    7.5469   -2.1010   -2.5562 C   0  0  0  0  0  0
    7.6134   -3.2639   -0.4389 C   0  0  0  0  0  0
    7.9469   -3.2050   -1.7964 C   0  0  0  0  0  0
    8.7323   -4.3448   -2.4511 C   0  0  0  0  0  0
   10.1761   -4.3182   -2.3864 N   0  0  0  0  0  0
    7.9157   -5.6578   -2.4890 C   0  0  0  0  0  0
    8.0226   -4.7249   -3.7151 C   0  0  0  0  0  0
   -2.5032   -3.0918    2.1581 H   0  0  0  0  0  0
   -4.6333    0.4107    0.9008 H   0  0  0  0  0  0
   -0.3797   -1.9593    1.7295 H   0  0  0  0  0  0
   -2.5149    1.5506    0.4700 H   0  0  0  0  0  0
    1.6399   -0.9000    1.3334 H   0  0  0  0  0  0
    3.7255   -0.8406   -0.4783 H   0  0  0  0  0  0
    3.7661    2.8932    1.6947 H   0  0  0  0  0  0
    7.4543    0.9797    0.6402 H   0  0  0  0  0  0
    6.5142   -0.2224   -2.5596 H   0  0  0  0  0  0
    6.6339   -2.2866    1.1981 H   0  0  0  0  0  0
    7.8051   -2.0290   -3.6026 H   0  0  0  0  0  0
    7.9173   -4.1122    0.1567 H   0  0  0  0  0  0
   10.4837   -3.4951   -1.8881 H   0  0  0  0  0  0
   10.5142   -5.1129   -1.8629 H   0  0  0  0  0  0
    8.4590   -6.5991   -2.5428 H   0  0  0  0  0  0
    6.9687   -5.6925   -1.9535 H   0  0  0  0  0  0
    7.0931   -4.2432   -4.0133 H   0  0  0  0  0  0
    8.6270   -5.0906   -4.5431 H   0  0  0  0  0  0
  1  2  1  0  0  0
  2  3  1  0  0  0
  2  4  1  0  0  0
  2  5  1  0  0  0
  5  6  2  0  0  0
  5  7  1  0  0  0
  6  8  1  0  0  0
  6 35  1  0  0  0
  7  9  2  0  0  0
  7 36  1  0  0  0
  8 10  2  0  0  0
  8 37  1  0  0  0
  9 10  1  0  0  0
  9 38  1  0  0  0
 10 11  1  0  0  0
 11 12  1  0  0  0
 11 13  2  0  0  0
 12 14  2  0  0  0
 13 15  1  0  0  0
 13 39  1  0  0  0
 14 15  1  0  0  0
 15 16  1  0  0  0
 16 17  2  0  0  0
 16 18  1  0  0  0
 17 19  1  0  0  0
 17 40  1  0  0  0
 18 20  2  0  0  0
 18 41  1  0  0  0
 19 21  1  0  0  0
 19 22  2  0  0  0
 20 23  1  0  0  0
 20 22  1  0  0  0
 21 24  2  0  0  0
 21 25  1  0  0  0
 22 42  1  0  0  0
 23 26  2  0  0  0
 23 27  1  0  0  0
 24 28  1  0  0  0
 24 43  1  0  0  0
 25 29  2  0  0  0
 25 44  1  0  0  0
 28 30  2  0  0  0
 28 45  1  0  0  0
 29 30  1  0  0  0
 29 46  1  0  0  0
 30 31  1  0  0  0
 31 32  1  0  0  0
 31 33  1  0  0  0
 31 34  1  0  0  0
 32 47  1  0  0  0
 32 48  1  0  0  0
 33 34  1  0  0  0
 33 49  1  0  0  0
 33 50  1  0  0  0
 34 51  1  0  0  0
 34 52  1  0  0  0
M  CHG  1  27  -1
M  END
> <i_epik_Tot_Q>
-1

> <i_epik_Tot_abs_Q>
1

> <i_lp_mmshare_version>
62121

> <i_m_Source_File_Index>
70

> <i_phase_Input_Structure_Number>
90

> <i_phase_Reference_Structure>
63

> <i_phase_Structure_Number>
90

> <Molecule Name>
122

> <Rotatable Bonds>
6

> <i_f3d_flags>
0

> <b_lp_Chiralities_Consistent>
1

> <r_canvas_IC50_human_P2Y14R,_nM>
14100

> <r_canvas_pIC50>
4.85078088734462

> <r_epik_Charging_Adjusted_Penalty>
0.235881567538986

> <r_epik_Ionization_Penalty>
  0.2359

> <r_epik_Ionization_Penalty_Charging>
  0.0002

> <r_epik_Ionization_Penalty_Neutral>
  0.2357

> <r_epik_State_Penalty>
  0.2357

> <r_lp_Energy>
34.706308

> <r_lp_tautomer_probability>
1

> <r_phase_Similarity_to_Reference>
0.877687953311528

> <s_canvas_CHEMBLID>
CHEMBL4299839

> <s_canvas_Compound>
22

> <s_canvas_Paper>
Jung2021

> <s_epik_cmdline>
J2VwaWtfcHl0aG9uJywgJy1waCcsICc3LjAnLCAnLXRuJywgJzgnLCAnLW1hJywgJzUwMCcsICctaW1hZScsICc8aW5maWxlLm1hZT4nLCAnLW9tYWUnLCAnPG91dGZpbGUubWFlPic=

> <s_epik_input>
RkMoRikoRiljMVtjSF1bY0hdYyhbY0hdW2NIXTEpLWMybm5uKFtjSF0yKS1jM1tjSF1jKFtjSF1jKFtjSF0zKUMoPU8pW09IXSktYzRbY0hdW2NIXWMoW2NIXVtjSF00KUM1KFtOSDJdKVtDSDJdW0NIMl01

> <s_lp_Force_Field>
S-OPLS

> <s_lp_Variant>
122-1

> <s_m_Source_File>
database-aligned.sdf

> <s_m_Source_Path>
/data/matteo/P2Y14-antagonists-piperidineDerivatives-Wen2023/14052024-optimized-alignment

> <s_m_entry_id>
70

> <s_m_entry_name>
database-aligned.70

> <s_m_job_name>
align_ligands_1

> <s_phase_Alignment_Method>
snapped core

> <s_phase_Alignment_Reason>


> <s_phase_Core_SMARTS>
A1AA1a2aaa(aa2)-a3aa(aaa3)-a4aaa(a4)-a5aaaaa5

$$$$
123
                    3D
 Schrodinger Suite 2023-2.
 56 60  0  0  1  0            999 V2000
   -4.8466   -3.4241    1.6134 F   0  0  0  0  0  0
   -5.0120   -2.1173    1.8111 C   0  0  0  0  0  0
   -5.9312   -1.6407    0.9732 F   0  0  0  0  0  0
   -5.3787   -1.8881    3.0709 F   0  0  0  0  0  0
   -3.7102   -1.4192    1.5505 C   0  0  0  0  0  0
   -2.5092   -2.0790    1.7828 C   0  0  0  0  0  0
   -3.7049   -0.1126    1.0769 C   0  0  0  0  0  0
   -1.3030   -1.4321    1.5414 C   0  0  0  0  0  0
   -2.4987    0.5343    0.8355 C   0  0  0  0  0  0
   -1.2977   -0.1255    1.0677 C   0  0  0  0  0  0
    0.0041    0.5726    0.8072 C   0  0  0  0  0  0
    0.0745    1.8131    0.3572 N   0  0  0  0  0  0
    1.2788    0.0570    0.9868 C   0  0  0  0  0  0
    1.4087    2.1505    0.2272 N   0  0  0  0  0  0
    2.1133    1.0787    0.6116 N   0  0  0  0  0  0
    3.5729    1.0430    0.6162 C   0  0  0  0  0  0
    4.2688   -0.0378   -0.0014 C   0  0  0  0  0  0
    4.3095    2.0826    1.2307 C   0  0  0  0  0  0
    5.6959   -0.0428    0.0147 C   0  0  0  0  0  0
    5.7140    2.0823    1.2549 C   0  0  0  0  0  0
    6.4845   -1.1328   -0.6109 C   0  0  0  0  0  0
    6.3738    1.0063    0.6388 C   0  0  0  0  0  0
    6.4824    3.1926    1.9177 C   0  0  0  0  0  0
    6.8196   -1.0713   -1.9653 C   0  0  0  0  0  0
    6.8885   -2.2318    0.1496 C   0  0  0  0  0  0
    7.7329    3.1460    1.9172 O   0  0  0  0  0  0
    5.8483    4.1301    2.4513 O   0  5  0  0  0  0
    7.5469   -2.1010   -2.5562 C   0  0  0  0  0  0
    7.6134   -3.2639   -0.4389 C   0  0  0  0  0  0
    7.9469   -3.2050   -1.7964 C   0  0  0  0  0  0
    8.7323   -4.3448   -2.4511 C   0  0  0  0  0  0
    8.0226   -4.7249   -3.7151 C   0  0  0  0  0  0
    7.9157   -5.6578   -2.4890 C   0  0  0  0  0  0
   10.2468   -4.2698   -2.3697 C   0  0  0  0  0  0
   10.7281   -4.2691   -0.9779 N   0  3  0  0  0  0
   -2.5030   -3.0915    2.1587 H   0  0  0  0  0  0
   -4.6328    0.4114    0.9011 H   0  0  0  0  0  0
   -0.3799   -1.9594    1.7293 H   0  0  0  0  0  0
   -2.5151    1.5504    0.4694 H   0  0  0  0  0  0
    1.6399   -0.8999    1.3330 H   0  0  0  0  0  0
    3.7251   -0.8397   -0.4792 H   0  0  0  0  0  0
    3.7666    2.8934    1.6950 H   0  0  0  0  0  0
    7.4543    0.9799    0.6403 H   0  0  0  0  0  0
    6.5135   -0.2224   -2.5595 H   0  0  0  0  0  0
    6.6330   -2.2863    1.1980 H   0  0  0  0  0  0
    7.8033   -2.0281   -3.6030 H   0  0  0  0  0  0
    7.9129   -4.1127    0.1582 H   0  0  0  0  0  0
    7.0941   -4.2418   -4.0146 H   0  0  0  0  0  0
    8.6263   -5.0916   -4.5429 H   0  0  0  0  0  0
    8.4587   -6.5991   -2.5433 H   0  0  0  0  0  0
    6.9680   -5.6935   -1.9545 H   0  0  0  0  0  0
   10.6844   -5.1167   -2.8991 H   0  0  0  0  0  0
   10.5880   -3.3608   -2.8655 H   0  0  0  0  0  0
   11.7350   -4.1924   -0.9681 H   0  0  0  0  0  0
   10.4500   -5.1282   -0.5251 H   0  0  0  0  0  0
   10.3260   -3.4844   -0.4850 H   0  0  0  0  0  0
  1  2  1  0  0  0
  2  3  1  0  0  0
  2  4  1  0  0  0
  2  5  1  0  0  0
  5  6  2  0  0  0
  5  7  1  0  0  0
  6  8  1  0  0  0
  6 36  1  0  0  0
  7  9  2  0  0  0
  7 37  1  0  0  0
  8 10  2  0  0  0
  8 38  1  0  0  0
  9 10  1  0  0  0
  9 39  1  0  0  0
 10 11  1  0  0  0
 11 12  1  0  0  0
 11 13  2  0  0  0
 12 14  2  0  0  0
 13 15  1  0  0  0
 13 40  1  0  0  0
 14 15  1  0  0  0
 15 16  1  0  0  0
 16 17  2  0  0  0
 16 18  1  0  0  0
 17 19  1  0  0  0
 17 41  1  0  0  0
 18 20  2  0  0  0
 18 42  1  0  0  0
 19 21  1  0  0  0
 19 22  2  0  0  0
 20 23  1  0  0  0
 20 22  1  0  0  0
 21 24  2  0  0  0
 21 25  1  0  0  0
 22 43  1  0  0  0
 23 26  2  0  0  0
 23 27  1  0  0  0
 24 28  1  0  0  0
 24 44  1  0  0  0
 25 29  2  0  0  0
 25 45  1  0  0  0
 28 30  2  0  0  0
 28 46  1  0  0  0
 29 30  1  0  0  0
 29 47  1  0  0  0
 30 31  1  0  0  0
 31 32  1  0  0  0
 31 33  1  0  0  0
 31 34  1  0  0  0
 32 33  1  0  0  0
 32 48  1  0  0  0
 32 49  1  0  0  0
 33 50  1  0  0  0
 33 51  1  0  0  0
 34 35  1  0  0  0
 34 52  1  0  0  0
 34 53  1  0  0  0
 35 54  1  0  0  0
 35 55  1  0  0  0
 35 56  1  0  0  0
M  CHG  2  27  -1  35   1
M  END
> <i_epik_Tot_Q>
0

> <i_epik_Tot_abs_Q>
2

> <i_lp_mmshare_version>
62121

> <i_m_Source_File_Index>
71

> <i_phase_Input_Structure_Number>
91

> <i_phase_Reference_Structure>
63

> <i_phase_Structure_Number>
91

> <Molecule Name>
123

> <Rotatable Bonds>
7

> <i_f3d_flags>
0

> <b_lp_Chiralities_Consistent>
1

> <r_canvas_IC50_human_P2Y14R,_nM>
8910

> <r_canvas_pIC50>
5.05012229596313

> <r_epik_Charging_Adjusted_Penalty>
0.00190699270702161

> <r_epik_Ionization_Penalty>
  0.0011

> <r_epik_Ionization_Penalty_Charging>
  0.0011

> <r_epik_Ionization_Penalty_Neutral>
  0.0000

> <r_epik_State_Penalty>
  0.0009

> <r_lp_Energy>
37.615469

> <r_lp_tautomer_probability>
1

> <r_phase_Similarity_to_Reference>
0.903538501245027

> <s_canvas_CHEMBLID>
CHEMBL4299824

> <s_canvas_Compound>
23

> <s_canvas_Paper>
Jung2021

> <s_epik_cmdline>
J2VwaWtfcHl0aG9uJywgJy1waCcsICc3LjAnLCAnLXRuJywgJzgnLCAnLW1hJywgJzUwMCcsICctaW1hZScsICc8aW5maWxlLm1hZT4nLCAnLW9tYWUnLCAnPG91dGZpbGUubWFlPic=

> <s_epik_input>
RkMoRikoRiljMVtjSF1bY0hdYyhbY0hdW2NIXTEpLWMybm5uKFtjSF0yKS1jM1tjSF1jKFtjSF1jKFtjSF0zKUMoPU8pW09IXSktYzRbY0hdW2NIXWMoW2NIXVtjSF00KUM1KFtDSDJdW0NIMl01KVtDSDJdW05IMl0=

> <s_lp_Force_Field>
S-OPLS

> <s_lp_Variant>
123-1

> <s_m_Source_File>
database-aligned.sdf

> <s_m_Source_Path>
/data/matteo/P2Y14-antagonists-piperidineDerivatives-Wen2023/14052024-optimized-alignment

> <s_m_entry_id>
71

> <s_m_entry_name>
database-aligned.71

> <s_m_job_name>
align_ligands_1

> <s_phase_Alignment_Method>
snapped core

> <s_phase_Alignment_Reason>


> <s_phase_Core_SMARTS>
A1AA1a2aaa(aa2)-a3aa(aaa3)-a4aaa(a4)-a5aaaaa5

$$$$
124
                    3D
 Schrodinger Suite 2023-2.
 70 74  0  0  1  0            999 V2000
   -4.8466   -3.4241    1.6134 F   0  0  0  0  0  0
   -5.0120   -2.1173    1.8111 C   0  0  0  0  0  0
   -5.9312   -1.6407    0.9732 F   0  0  0  0  0  0
   -5.3787   -1.8881    3.0709 F   0  0  0  0  0  0
   -3.7102   -1.4192    1.5505 C   0  0  0  0  0  0
   -3.7049   -0.1126    1.0769 C   0  0  0  0  0  0
   -2.5092   -2.0790    1.7828 C   0  0  0  0  0  0
   -2.4987    0.5343    0.8355 C   0  0  0  0  0  0
   -1.3030   -1.4321    1.5414 C   0  0  0  0  0  0
   -1.2977   -0.1255    1.0677 C   0  0  0  0  0  0
    0.0041    0.5726    0.8072 C   0  0  0  0  0  0
    0.0745    1.8131    0.3572 N   0  0  0  0  0  0
    1.2788    0.0570    0.9868 C   0  0  0  0  0  0
    1.4087    2.1505    0.2272 N   0  0  0  0  0  0
    2.1133    1.0787    0.6116 N   0  0  0  0  0  0
    3.5729    1.0430    0.6162 C   0  0  0  0  0  0
    4.2688   -0.0378   -0.0014 C   0  0  0  0  0  0
    4.3095    2.0826    1.2307 C   0  0  0  0  0  0
    5.6959   -0.0428    0.0147 C   0  0  0  0  0  0
    5.7140    2.0823    1.2549 C   0  0  0  0  0  0
    6.4845   -1.1328   -0.6109 C   0  0  0  0  0  0
    6.3738    1.0063    0.6388 C   0  0  0  0  0  0
    6.4824    3.1926    1.9177 C   0  0  0  0  0  0
    6.8196   -1.0713   -1.9653 C   0  0  0  0  0  0
    6.8885   -2.2318    0.1496 C   0  0  0  0  0  0
    7.7329    3.1460    1.9172 O   0  0  0  0  0  0
    5.8483    4.1301    2.4513 O   0  5  0  0  0  0
    7.5469   -2.1010   -2.5562 C   0  0  0  0  0  0
    7.6134   -3.2639   -0.4389 C   0  0  0  0  0  0
    7.9469   -3.2050   -1.7964 C   0  0  0  0  0  0
    8.7323   -4.3448   -2.4511 C   0  0  0  0  0  0
    8.0226   -4.7249   -3.7151 C   0  0  0  0  0  0
    7.9157   -5.6578   -2.4890 C   0  0  0  0  0  0
   10.2442   -4.2900   -2.3158 C   0  0  0  0  0  0
   10.8244   -5.4674   -1.6848 N   0  0  0  0  0  0
   12.0582   -5.9988   -2.0127 C   0  0  0  0  0  0
   12.8415   -5.5609   -2.8554 O   0  0  0  0  0  0
   12.2523   -7.0947   -1.2409 O   0  0  0  0  0  0
   13.4104   -7.9381   -1.2998 C   0  0  0  0  0  0
   14.6896   -7.1677   -0.9060 C   0  0  0  0  0  0
   13.5468   -8.6080   -2.6844 C   0  0  0  0  0  0
   13.1345   -9.0231   -0.2439 C   0  0  0  0  0  0
   -4.6331    0.4106    0.9004 H   0  0  0  0  0  0
   -2.5037   -3.0919    2.1577 H   0  0  0  0  0  0
   -2.5153    1.5504    0.4694 H   0  0  0  0  0  0
   -0.3800   -1.9596    1.7293 H   0  0  0  0  0  0
    1.6399   -0.8998    1.3331 H   0  0  0  0  0  0
    3.7256   -0.8401   -0.4790 H   0  0  0  0  0  0
    3.7661    2.8933    1.6948 H   0  0  0  0  0  0
    7.4543    0.9795    0.6402 H   0  0  0  0  0  0
    6.5140   -0.2223   -2.5595 H   0  0  0  0  0  0
    6.6341   -2.2865    1.1981 H   0  0  0  0  0  0
    7.8048   -2.0288   -3.6026 H   0  0  0  0  0  0
    7.9180   -4.1120    0.1567 H   0  0  0  0  0  0
    7.0940   -4.2423   -4.0145 H   0  0  0  0  0  0
    8.6279   -5.0919   -4.5415 H   0  0  0  0  0  0
    8.4458   -6.6054   -2.5602 H   0  0  0  0  0  0
    6.9690   -5.6917   -1.9530 H   0  0  0  0  0  0
   10.6720   -4.1291   -3.3065 H   0  0  0  0  0  0
   10.5208   -3.4200   -1.7185 H   0  0  0  0  0  0
   10.3003   -5.9473   -0.9673 H   0  0  0  0  0  0
   15.5400   -7.8443   -0.8140 H   0  0  0  0  0  0
   14.5673   -6.6621    0.0525 H   0  0  0  0  0  0
   14.9628   -6.4142   -1.6442 H   0  0  0  0  0  0
   13.7862   -7.8913   -3.4693 H   0  0  0  0  0  0
   12.6247   -9.1149   -2.9707 H   0  0  0  0  0  0
   14.3432   -9.3528   -2.6816 H   0  0  0  0  0  0
   13.9544   -9.7398   -0.1855 H   0  0  0  0  0  0
   12.2264   -9.5810   -0.4760 H   0  0  0  0  0  0
   13.0066   -8.5883    0.7482 H   0  0  0  0  0  0
  1  2  1  0  0  0
  2  3  1  0  0  0
  2  4  1  0  0  0
  2  5  1  0  0  0
  5  6  2  0  0  0
  5  7  1  0  0  0
  6  8  1  0  0  0
  6 43  1  0  0  0
  7  9  2  0  0  0
  7 44  1  0  0  0
  8 10  2  0  0  0
  8 45  1  0  0  0
  9 10  1  0  0  0
  9 46  1  0  0  0
 10 11  1  0  0  0
 11 12  1  0  0  0
 11 13  2  0  0  0
 12 14  2  0  0  0
 13 15  1  0  0  0
 13 47  1  0  0  0
 14 15  1  0  0  0
 15 16  1  0  0  0
 16 17  2  0  0  0
 16 18  1  0  0  0
 17 19  1  0  0  0
 17 48  1  0  0  0
 18 20  2  0  0  0
 18 49  1  0  0  0
 19 21  1  0  0  0
 19 22  2  0  0  0
 20 23  1  0  0  0
 20 22  1  0  0  0
 21 24  2  0  0  0
 21 25  1  0  0  0
 22 50  1  0  0  0
 23 26  2  0  0  0
 23 27  1  0  0  0
 24 28  1  0  0  0
 24 51  1  0  0  0
 25 29  2  0  0  0
 25 52  1  0  0  0
 28 30  2  0  0  0
 28 53  1  0  0  0
 29 30  1  0  0  0
 29 54  1  0  0  0
 30 31  1  0  0  0
 31 32  1  0  0  0
 31 33  1  0  0  0
 31 34  1  0  0  0
 32 33  1  0  0  0
 32 55  1  0  0  0
 32 56  1  0  0  0
 33 57  1  0  0  0
 33 58  1  0  0  0
 34 35  1  0  0  0
 34 59  1  0  0  0
 34 60  1  0  0  0
 35 36  1  0  0  0
 35 61  1  0  0  0
 36 37  2  0  0  0
 36 38  1  0  0  0
 38 39  1  0  0  0
 39 40  1  0  0  0
 39 41  1  0  0  0
 39 42  1  0  0  0
 40 62  1  0  0  0
 40 63  1  0  0  0
 40 64  1  0  0  0
 41 65  1  0  0  0
 41 66  1  0  0  0
 41 67  1  0  0  0
 42 68  1  0  0  0
 42 69  1  0  0  0
 42 70  1  0  0  0
M  CHG  1  27  -1
M  END
> <i_epik_Tot_Q>
-1

> <i_epik_Tot_abs_Q>
1

> <i_lp_mmshare_version>
62121

> <i_m_Source_File_Index>
72

> <i_phase_Input_Structure_Number>
92

> <i_phase_Reference_Structure>
63

> <i_phase_Structure_Number>
92

> <Molecule Name>
124

> <Rotatable Bonds>
10

> <i_f3d_flags>
0

> <b_lp_Chiralities_Consistent>
1

> <r_canvas_IC50_human_P2Y14R,_nM>
18800

> <r_canvas_pIC50>
4.72584215073632

> <r_epik_Charging_Adjusted_Penalty>
0.000202807303417749

> <r_epik_Ionization_Penalty>
  0.0002

> <r_epik_Ionization_Penalty_Charging>
  0.0002

> <r_epik_Ionization_Penalty_Neutral>
  0.0000

> <r_epik_State_Penalty>
  0.0000

> <r_lp_Energy>
28.958966

> <r_lp_tautomer_probability>
1

> <r_phase_Similarity_to_Reference>
0.838072304751095

> <s_canvas_CHEMBLID>
CHEMBL4299823

> <s_canvas_Compound>
24

> <s_canvas_Paper>
Jung2021

> <s_epik_Chemistry_Notes>
This compound has an ester and may undergo hydrolysis at high or low pH.

> <s_epik_cmdline>
J2VwaWtfcHl0aG9uJywgJy1waCcsICc3LjAnLCAnLXRuJywgJzgnLCAnLW1hJywgJzUwMCcsICctaW1hZScsICc8aW5maWxlLm1hZT4nLCAnLW9tYWUnLCAnPG91dGZpbGUubWFlPic=

> <s_epik_input>
RkMoRikoRiljMVtjSF1bY0hdYyhbY0hdW2NIXTEpLWMybm5uKFtjSF0yKS1jM1tjSF1jKFtjSF1jKFtjSF0zKUMoPU8pW09IXSktYzRbY0hdW2NIXWMoW2NIXVtjSF00KUM1KFtDSDJdW0NIMl01KVtDSDJdW05IXUMoPU8pT0MoW0NIM10pKFtDSDNdKVtDSDNd

> <s_lp_Force_Field>
S-OPLS

> <s_lp_Variant>
124-1

> <s_m_Source_File>
database-aligned.sdf

> <s_m_Source_Path>
/data/matteo/P2Y14-antagonists-piperidineDerivatives-Wen2023/14052024-optimized-alignment

> <s_m_entry_id>
72

> <s_m_entry_name>
database-aligned.72

> <s_m_job_name>
align_ligands_1

> <s_phase_Alignment_Method>
snapped core

> <s_phase_Alignment_Reason>


> <s_phase_Core_SMARTS>
A1AA1a2aaa(aa2)-a3aa(aaa3)-a4aaa(a4)-a5aaaaa5

$$$$
125
                    3D
 Schrodinger Suite 2023-2.
 56 60  0  0  1  0            999 V2000
   -4.8466   -3.4241    1.6134 F   0  0  0  0  0  0
   -5.0120   -2.1173    1.8111 C   0  0  0  0  0  0
   -5.9312   -1.6407    0.9732 F   0  0  0  0  0  0
   -5.3787   -1.8881    3.0709 F   0  0  0  0  0  0
   -3.7102   -1.4192    1.5505 C   0  0  0  0  0  0
   -3.7049   -0.1126    1.0769 C   0  0  0  0  0  0
   -2.5092   -2.0790    1.7828 C   0  0  0  0  0  0
   -2.4987    0.5343    0.8355 C   0  0  0  0  0  0
   -1.3030   -1.4321    1.5414 C   0  0  0  0  0  0
   -1.2977   -0.1255    1.0677 C   0  0  0  0  0  0
    0.0041    0.5726    0.8072 C   0  0  0  0  0  0
    0.0745    1.8131    0.3572 N   0  0  0  0  0  0
    1.2788    0.0570    0.9868 C   0  0  0  0  0  0
    1.4087    2.1505    0.2272 N   0  0  0  0  0  0
    2.1133    1.0787    0.6116 N   0  0  0  0  0  0
    3.5729    1.0430    0.6162 C   0  0  0  0  0  0
    4.2688   -0.0378   -0.0014 C   0  0  0  0  0  0
    4.3095    2.0826    1.2307 C   0  0  0  0  0  0
    5.6959   -0.0428    0.0147 C   0  0  0  0  0  0
    5.7140    2.0823    1.2549 C   0  0  0  0  0  0
    6.4845   -1.1328   -0.6109 C   0  0  0  0  0  0
    6.3738    1.0063    0.6388 C   0  0  0  0  0  0
    6.4824    3.1926    1.9177 C   0  0  0  0  0  0
    6.8196   -1.0713   -1.9653 C   0  0  0  0  0  0
    6.8885   -2.2318    0.1496 C   0  0  0  0  0  0
    7.7329    3.1460    1.9172 O   0  0  0  0  0  0
    5.8483    4.1301    2.4513 O   0  5  0  0  0  0
    7.5469   -2.1010   -2.5562 C   0  0  0  0  0  0
    7.6134   -3.2639   -0.4389 C   0  0  0  0  0  0
    7.9469   -3.2050   -1.7964 C   0  0  0  0  0  0
    8.7472   -4.3858   -2.4093 C   0  0  0  0  0  0
    9.0931   -4.2007   -3.8350 N   0  3  0  0  0  0
    9.9552   -4.8988   -1.5797 C   0  0  0  0  0  0
    8.1256   -5.7793   -2.1334 C   0  0  0  0  0  0
    9.5213   -6.3368   -1.8580 C   0  0  0  0  0  0
   -4.6328    0.4103    0.8977 H   0  0  0  0  0  0
   -2.5028   -3.0928    2.1552 H   0  0  0  0  0  0
   -2.5155    1.5501    0.4687 H   0  0  0  0  0  0
   -0.3800   -1.9598    1.7286 H   0  0  0  0  0  0
    1.6398   -0.8997    1.3332 H   0  0  0  0  0  0
    3.7251   -0.8401   -0.4784 H   0  0  0  0  0  0
    3.7663    2.8935    1.6947 H   0  0  0  0  0  0
    7.4543    0.9792    0.6401 H   0  0  0  0  0  0
    6.5107   -0.2234   -2.5595 H   0  0  0  0  0  0
    6.6326   -2.2868    1.1979 H   0  0  0  0  0  0
    7.7847   -2.0221   -3.6061 H   0  0  0  0  0  0
    7.8997   -4.1024    0.1774 H   0  0  0  0  0  0
    9.6078   -5.0046   -4.1645 H   0  0  0  0  0  0
    9.6600   -3.3711   -3.9372 H   0  0  0  0  0  0
   10.9338   -4.6342   -1.9820 H   0  0  0  0  0  0
    9.9113   -4.6720   -0.5145 H   0  0  0  0  0  0
    7.4994   -5.8301   -1.2420 H   0  0  0  0  0  0
    7.6126   -6.2310   -2.9833 H   0  0  0  0  0  0
    9.9942   -6.7622   -2.7444 H   0  0  0  0  0  0
    9.5847   -7.0077   -1.0006 H   0  0  0  0  0  0
    8.2457   -4.0984   -4.3748 H   0  0  0  0  0  0
  1  2  1  0  0  0
  2  3  1  0  0  0
  2  4  1  0  0  0
  2  5  1  0  0  0
  5  6  2  0  0  0
  5  7  1  0  0  0
  6  8  1  0  0  0
  6 36  1  0  0  0
  7  9  2  0  0  0
  7 37  1  0  0  0
  8 10  2  0  0  0
  8 38  1  0  0  0
  9 10  1  0  0  0
  9 39  1  0  0  0
 10 11  1  0  0  0
 11 12  1  0  0  0
 11 13  2  0  0  0
 12 14  2  0  0  0
 13 15  1  0  0  0
 13 40  1  0  0  0
 14 15  1  0  0  0
 15 16  1  0  0  0
 16 17  2  0  0  0
 16 18  1  0  0  0
 17 19  1  0  0  0
 17 41  1  0  0  0
 18 20  2  0  0  0
 18 42  1  0  0  0
 19 21  1  0  0  0
 19 22  2  0  0  0
 20 23  1  0  0  0
 20 22  1  0  0  0
 21 24  2  0  0  0
 21 25  1  0  0  0
 22 43  1  0  0  0
 23 26  2  0  0  0
 23 27  1  0  0  0
 24 28  1  0  0  0
 24 44  1  0  0  0
 25 29  2  0  0  0
 25 45  1  0  0  0
 28 30  2  0  0  0
 28 46  1  0  0  0
 29 30  1  0  0  0
 29 47  1  0  0  0
 30 31  1  0  0  0
 31 32  1  0  0  0
 31 33  1  0  0  0
 31 34  1  0  0  0
 32 48  1  0  0  0
 32 49  1  0  0  0
 32 56  1  0  0  0
 33 35  1  0  0  0
 33 50  1  0  0  0
 33 51  1  0  0  0
 34 35  1  0  0  0
 34 52  1  0  0  0
 34 53  1  0  0  0
 35 54  1  0  0  0
 35 55  1  0  0  0
M  CHG  2  27  -1  32   1
M  END
> <i_epik_Tot_Q>
0

> <i_epik_Tot_abs_Q>
2

> <i_lp_mmshare_version>
62121

> <i_m_Source_File_Index>
73

> <i_phase_Input_Structure_Number>
93

> <i_phase_Reference_Structure>
94

> <i_phase_Structure_Number>
93

> <Molecule Name>
125

> <Rotatable Bonds>
6

> <i_f3d_flags>
0

> <b_lp_Chiralities_Consistent>
1

> <r_canvas_IC50_human_P2Y14R,_nM>
2000

> <r_canvas_pIC50>
5.69897000433602

> <r_epik_Charging_Adjusted_Penalty>
0.0350698374013812

> <r_epik_Ionization_Penalty>
  0.0176

> <r_epik_Ionization_Penalty_Charging>
  0.0176

> <r_epik_Ionization_Penalty_Neutral>
  0.0000

> <r_epik_State_Penalty>
  0.0175

> <r_lp_Energy>
64.848287

> <r_lp_tautomer_probability>
1

> <r_phase_Similarity_to_Reference>
0.967341652704229

> <s_canvas_CHEMBLID>
CHEMBL4299805

> <s_canvas_Compound>
25

> <s_canvas_Paper>
Jung2021

> <s_epik_cmdline>
J2VwaWtfcHl0aG9uJywgJy1waCcsICc3LjAnLCAnLXRuJywgJzgnLCAnLW1hJywgJzUwMCcsICctaW1hZScsICc8aW5maWxlLm1hZT4nLCAnLW9tYWUnLCAnPG91dGZpbGUubWFlPic=

> <s_epik_input>
RkMoRikoRiljMVtjSF1bY0hdYyhbY0hdW2NIXTEpLWMybm5uKFtjSF0yKS1jM1tjSF1jKFtjSF1jKFtjSF0zKUMoPU8pW09IXSktYzRbY0hdW2NIXWMoW2NIXVtjSF00KUM1KFtOSDJdKVtDSDJdW0NIMl1bQ0gyXTU=

> <s_lp_Force_Field>
S-OPLS

> <s_lp_Variant>
125-1

> <s_m_Source_File>
database-aligned.sdf

> <s_m_Source_Path>
/data/matteo/P2Y14-antagonists-piperidineDerivatives-Wen2023/14052024-optimized-alignment

> <s_m_entry_id>
73

> <s_m_entry_name>
database-aligned.73

> <s_m_job_name>
align_ligands_1

> <s_phase_Alignment_Method>
snapped core

> <s_phase_Alignment_Reason>


> <s_phase_Core_SMARTS>
A1AAA1a2aaa(aa2)-a3aa(aaa3)-a4aaa(a4)-a5aaaaa5

$$$$
127
                    3D
 Schrodinger Suite 2023-2.
 57 61  0  0  1  0            999 V2000
   -4.8466   -3.4241    1.6134 F   0  0  0  0  0  0
   -5.0120   -2.1173    1.8111 C   0  0  0  0  0  0
   -5.9312   -1.6407    0.9732 F   0  0  0  0  0  0
   -5.3787   -1.8881    3.0709 F   0  0  0  0  0  0
   -3.7102   -1.4192    1.5505 C   0  0  0  0  0  0
   -2.5092   -2.0790    1.7828 C   0  0  0  0  0  0
   -3.7049   -0.1126    1.0769 C   0  0  0  0  0  0
   -1.3030   -1.4321    1.5414 C   0  0  0  0  0  0
   -2.4987    0.5343    0.8355 C   0  0  0  0  0  0
   -1.2977   -0.1255    1.0677 C   0  0  0  0  0  0
    0.0041    0.5726    0.8072 C   0  0  0  0  0  0
    0.0745    1.8131    0.3572 N   0  0  0  0  0  0
    1.2788    0.0570    0.9868 C   0  0  0  0  0  0
    1.4087    2.1505    0.2272 N   0  0  0  0  0  0
    2.1133    1.0787    0.6116 N   0  0  0  0  0  0
    3.5729    1.0430    0.6162 C   0  0  0  0  0  0
    4.2688   -0.0378   -0.0014 C   0  0  0  0  0  0
    4.3095    2.0826    1.2307 C   0  0  0  0  0  0
    5.6959   -0.0428    0.0147 C   0  0  0  0  0  0
    5.7140    2.0823    1.2549 C   0  0  0  0  0  0
    6.4845   -1.1328   -0.6109 C   0  0  0  0  0  0
    6.3738    1.0063    0.6388 C   0  0  0  0  0  0
    6.4824    3.1926    1.9177 C   0  0  0  0  0  0
    6.8196   -1.0713   -1.9653 C   0  0  0  0  0  0
    6.8885   -2.2318    0.1496 C   0  0  0  0  0  0
    7.7329    3.1460    1.9172 O   0  0  0  0  0  0
    5.8483    4.1301    2.4513 O   0  5  0  0  0  0
    7.5469   -2.1010   -2.5562 C   0  0  0  0  0  0
    7.6134   -3.2639   -0.4389 C   0  0  0  0  0  0
    7.9469   -3.2050   -1.7964 C   0  0  0  0  0  0
    8.7472   -4.3858   -2.4093 C   0  0  0  0  0  0
    9.9552   -4.8988   -1.5797 C   0  0  0  0  0  0
    8.1256   -5.7793   -2.1334 C   0  0  0  0  0  0
    9.0709   -4.1654   -3.9065 C   0  0  0  0  0  0
    9.5213   -6.3368   -1.8580 C   0  0  0  0  0  0
   10.0514   -3.1630   -4.0935 O   0  0  0  0  0  0
   -2.5035   -3.0924    2.1564 H   0  0  0  0  0  0
   -4.6330    0.4104    0.8990 H   0  0  0  0  0  0
   -0.3799   -1.9597    1.7288 H   0  0  0  0  0  0
   -2.5152    1.5502    0.4690 H   0  0  0  0  0  0
    1.6400   -0.8999    1.3331 H   0  0  0  0  0  0
    3.7256   -0.8401   -0.4791 H   0  0  0  0  0  0
    3.7660    2.8932    1.6947 H   0  0  0  0  0  0
    7.4543    0.9797    0.6403 H   0  0  0  0  0  0
    6.5117   -0.2236   -2.5599 H   0  0  0  0  0  0
    6.6334   -2.2869    1.1979 H   0  0  0  0  0  0
    7.7752   -1.9997   -3.6044 H   0  0  0  0  0  0
    7.9008   -4.1024    0.1766 H   0  0  0  0  0  0
   10.9350   -4.6409   -1.9827 H   0  0  0  0  0  0
    9.9128   -4.6684   -0.5154 H   0  0  0  0  0  0
    7.4958   -5.8293   -1.2445 H   0  0  0  0  0  0
    7.6168   -6.2297   -2.9864 H   0  0  0  0  0  0
    9.4793   -5.0745   -4.3482 H   0  0  0  0  0  0
    8.1782   -3.9445   -4.4919 H   0  0  0  0  0  0
    9.9961   -6.7643   -2.7421 H   0  0  0  0  0  0
    9.5839   -7.0059   -0.9992 H   0  0  0  0  0  0
   10.2349   -3.0905   -5.0178 H   0  0  0  0  0  0
  1  2  1  0  0  0
  2  3  1  0  0  0
  2  4  1  0  0  0
  2  5  1  0  0  0
  5  6  2  0  0  0
  5  7  1  0  0  0
  6  8  1  0  0  0
  6 37  1  0  0  0
  7  9  2  0  0  0
  7 38  1  0  0  0
  8 10  2  0  0  0
  8 39  1  0  0  0
  9 10  1  0  0  0
  9 40  1  0  0  0
 10 11  1  0  0  0
 11 12  1  0  0  0
 11 13  2  0  0  0
 12 14  2  0  0  0
 13 15  1  0  0  0
 13 41  1  0  0  0
 14 15  1  0  0  0
 15 16  1  0  0  0
 16 17  2  0  0  0
 16 18  1  0  0  0
 17 19  1  0  0  0
 17 42  1  0  0  0
 18 20  2  0  0  0
 18 43  1  0  0  0
 19 21  1  0  0  0
 19 22  2  0  0  0
 20 23  1  0  0  0
 20 22  1  0  0  0
 21 24  2  0  0  0
 21 25  1  0  0  0
 22 44  1  0  0  0
 23 26  2  0  0  0
 23 27  1  0  0  0
 24 28  1  0  0  0
 24 45  1  0  0  0
 25 29  2  0  0  0
 25 46  1  0  0  0
 28 30  2  0  0  0
 28 47  1  0  0  0
 29 30  1  0  0  0
 29 48  1  0  0  0
 30 31  1  0  0  0
 31 32  1  0  0  0
 31 33  1  0  0  0
 31 34  1  0  0  0
 32 35  1  0  0  0
 32 49  1  0  0  0
 32 50  1  0  0  0
 33 35  1  0  0  0
 33 51  1  0  0  0
 33 52  1  0  0  0
 34 36  1  0  0  0
 34 53  1  0  0  0
 34 54  1  0  0  0
 35 55  1  0  0  0
 35 56  1  0  0  0
 36 57  1  0  0  0
M  CHG  1  27  -1
M  END
> <i_epik_Tot_Q>
-1

> <i_epik_Tot_abs_Q>
1

> <i_lp_mmshare_version>
62121

> <i_m_Source_File_Index>
74

> <i_phase_Input_Structure_Number>
94

> <i_phase_Reference_Structure>
41

> <i_phase_Structure_Number>
94

> <Molecule Name>
127

> <Rotatable Bonds>
7

> <i_f3d_flags>
0

> <b_lp_Chiralities_Consistent>
1

> <r_canvas_IC50_human_P2Y14R,_nM>
2860

> <r_canvas_pIC50>
5.54363396687096

> <r_epik_Charging_Adjusted_Penalty>
0.000202807303417749

> <r_epik_Ionization_Penalty>
  0.0002

> <r_epik_Ionization_Penalty_Charging>
  0.0002

> <r_epik_Ionization_Penalty_Neutral>
  0.0000

> <r_epik_State_Penalty>
  0.0000

> <r_lp_Energy>
61.629049

> <r_lp_tautomer_probability>
1

> <r_phase_Similarity_to_Reference>
0.883151240380556

> <s_canvas_CHEMBLID>
CHEMBL4218967

> <s_canvas_Compound>
27

> <s_canvas_Paper>
Jung2021

> <s_epik_cmdline>
J2VwaWtfcHl0aG9uJywgJy1waCcsICc3LjAnLCAnLXRuJywgJzgnLCAnLW1hJywgJzUwMCcsICctaW1hZScsICc8aW5maWxlLm1hZT4nLCAnLW9tYWUnLCAnPG91dGZpbGUubWFlPic=

> <s_epik_input>
RkMoRikoRiljMVtjSF1bY0hdYyhbY0hdW2NIXTEpLWMybm5uKFtjSF0yKS1jM1tjSF1jKFtjSF1jKFtjSF0zKUMoPU8pW09IXSktYzRbY0hdW2NIXWMoW2NIXVtjSF00KUM1KFtDSDJdW09IXSlbQ0gyXVtDSDJdW0NIMl01

> <s_lp_Force_Field>
S-OPLS

> <s_lp_Variant>
127-1

> <s_m_Source_File>
database-aligned.sdf

> <s_m_Source_Path>
/data/matteo/P2Y14-antagonists-piperidineDerivatives-Wen2023/14052024-optimized-alignment

> <s_m_entry_id>
74

> <s_m_entry_name>
database-aligned.74

> <s_m_job_name>
align_ligands_1

> <s_phase_Alignment_Method>
snapped core

> <s_phase_Alignment_Reason>


> <s_phase_Core_SMARTS>
a1aaaaa1-a2aa(aa2)-a3aaaa(a3)-a4aaaaa4

$$$$
128
                    3D
 Schrodinger Suite 2023-2.
 49 53  0  0  1  0            999 V2000
   -4.8466   -3.4241    1.6134 F   0  0  0  0  0  0
   -5.0120   -2.1173    1.8111 C   0  0  0  0  0  0
   -5.9312   -1.6407    0.9732 F   0  0  0  0  0  0
   -5.3787   -1.8881    3.0709 F   0  0  0  0  0  0
   -3.7102   -1.4192    1.5505 C   0  0  0  0  0  0
   -3.7049   -0.1126    1.0769 C   0  0  0  0  0  0
   -2.5092   -2.0790    1.7828 C   0  0  0  0  0  0
   -2.4987    0.5343    0.8355 C   0  0  0  0  0  0
   -1.3030   -1.4321    1.5414 C   0  0  0  0  0  0
   -1.2977   -0.1255    1.0677 C   0  0  0  0  0  0
    0.0041    0.5726    0.8072 C   0  0  0  0  0  0
    0.0745    1.8131    0.3572 N   0  0  0  0  0  0
    1.2788    0.0570    0.9868 C   0  0  0  0  0  0
    1.4087    2.1505    0.2272 N   0  0  0  0  0  0
    2.1133    1.0787    0.6116 N   0  0  0  0  0  0
    3.5729    1.0430    0.6162 C   0  0  0  0  0  0
    4.2688   -0.0378   -0.0014 C   0  0  0  0  0  0
    4.3095    2.0826    1.2307 C   0  0  0  0  0  0
    5.6959   -0.0428    0.0147 C   0  0  0  0  0  0
    5.7140    2.0823    1.2549 C   0  0  0  0  0  0
    6.4845   -1.1328   -0.6109 C   0  0  0  0  0  0
    6.3738    1.0063    0.6388 C   0  0  0  0  0  0
    6.4824    3.1926    1.9177 C   0  0  0  0  0  0
    6.8885   -2.2318    0.1496 C   0  0  0  0  0  0
    6.8196   -1.0713   -1.9653 C   0  0  0  0  0  0
    7.7329    3.1460    1.9172 O   0  0  0  0  0  0
    5.8483    4.1301    2.4513 O   0  5  0  0  0  0
    7.6134   -3.2639   -0.4389 C   0  0  0  0  0  0
    7.5469   -2.1010   -2.5562 C   0  0  0  0  0  0
    7.9469   -3.2050   -1.7964 C   0  0  0  0  0  0
    8.7289   -4.2965   -2.3996 C   0  0  0  0  0  0
    8.8333   -4.4074   -3.7179 N   0  0  0  0  0  0
    9.4492   -5.3393   -1.7468 C   0  0  0  0  0  0
    9.6338   -5.5277   -3.9623 O   0  0  0  0  0  0
    9.9915   -6.0638   -2.7693 C   0  0  0  0  0  0
   -4.6328    0.4102    0.8976 H   0  0  0  0  0  0
   -2.5029   -3.0928    2.1551 H   0  0  0  0  0  0
   -2.5155    1.5501    0.4687 H   0  0  0  0  0  0
   -0.3800   -1.9599    1.7286 H   0  0  0  0  0  0
    1.6395   -0.8998    1.3335 H   0  0  0  0  0  0
    3.7255   -0.8402   -0.4787 H   0  0  0  0  0  0
    3.7663    2.8935    1.6946 H   0  0  0  0  0  0
    7.4543    0.9791    0.6397 H   0  0  0  0  0  0
    6.6342   -2.2862    1.1982 H   0  0  0  0  0  0
    6.5132   -0.2229   -2.5598 H   0  0  0  0  0  0
    7.9120   -4.1055    0.1680 H   0  0  0  0  0  0
    7.7975   -2.0264   -3.6042 H   0  0  0  0  0  0
    9.5601   -5.5272   -0.6894 H   0  0  0  0  0  0
   10.6181   -6.9426   -2.8091 H   0  0  0  0  0  0
  1  2  1  0  0  0
  2  3  1  0  0  0
  2  4  1  0  0  0
  2  5  1  0  0  0
  5  6  2  0  0  0
  5  7  1  0  0  0
  6  8  1  0  0  0
  6 36  1  0  0  0
  7  9  2  0  0  0
  7 37  1  0  0  0
  8 10  2  0  0  0
  8 38  1  0  0  0
  9 10  1  0  0  0
  9 39  1  0  0  0
 10 11  1  0  0  0
 11 12  1  0  0  0
 11 13  2  0  0  0
 12 14  2  0  0  0
 13 15  1  0  0  0
 13 40  1  0  0  0
 14 15  1  0  0  0
 15 16  1  0  0  0
 16 17  2  0  0  0
 16 18  1  0  0  0
 17 19  1  0  0  0
 17 41  1  0  0  0
 18 20  2  0  0  0
 18 42  1  0  0  0
 19 21  1  0  0  0
 19 22  2  0  0  0
 20 23  1  0  0  0
 20 22  1  0  0  0
 21 24  2  0  0  0
 21 25  1  0  0  0
 22 43  1  0  0  0
 23 26  2  0  0  0
 23 27  1  0  0  0
 24 28  1  0  0  0
 24 44  1  0  0  0
 25 29  2  0  0  0
 25 45  1  0  0  0
 28 30  2  0  0  0
 28 46  1  0  0  0
 29 30  1  0  0  0
 29 47  1  0  0  0
 30 31  1  0  0  0
 31 32  2  0  0  0
 31 33  1  0  0  0
 32 34  1  0  0  0
 33 35  2  0  0  0
 33 48  1  0  0  0
 34 35  1  0  0  0
 35 49  1  0  0  0
M  CHG  1  27  -1
M  END
> <i_epik_Tot_Q>
-1

> <i_epik_Tot_abs_Q>
1

> <i_lp_mmshare_version>
62121

> <i_m_Source_File_Index>
75

> <i_phase_Input_Structure_Number>
95

> <i_phase_Reference_Structure>
97

> <i_phase_Structure_Number>
95

> <Molecule Name>
128

> <Rotatable Bonds>
6

> <i_f3d_flags>
0

> <b_lp_Chiralities_Consistent>
1

> <r_canvas_IC50_human_P2Y14R,_nM>
2230

> <r_canvas_pIC50>
5.65169513695184

> <r_epik_Charging_Adjusted_Penalty>
0.000166961650298847

> <r_epik_Ionization_Penalty>
  0.0002

> <r_epik_Ionization_Penalty_Charging>
  0.0002

> <r_epik_Ionization_Penalty_Neutral>
  0.0000

> <r_epik_State_Penalty>
  0.0000

> <r_lp_Energy>
49.506073

> <r_lp_tautomer_probability>
1

> <r_phase_Similarity_to_Reference>
0.927025474919874

> <s_canvas_CHEMBLID>
CHEMBL4218967

> <s_canvas_Compound>
28

> <s_canvas_Paper>
Jung2021

> <s_epik_cmdline>
J2VwaWtfcHl0aG9uJywgJy1waCcsICc3LjAnLCAnLXRuJywgJzgnLCAnLW1hJywgJzUwMCcsICctaW1hZScsICc8aW5maWxlLm1hZT4nLCAnLW9tYWUnLCAnPG91dGZpbGUubWFlPic=

> <s_epik_input>
RkMoRikoRiljMVtjSF1bY0hdYyhbY0hdW2NIXTEpLWMybm5uKFtjSF0yKS1jM1tjSF1jKFtjSF1jKFtjSF0zKUMoPU8pW09IXSktYzRbY0hdW2NIXWMoW2NIXVtjSF00KS1jNW5vW2NIXVtjSF01

> <s_lp_Force_Field>
S-OPLS

> <s_lp_Variant>
128-1

> <s_m_Source_File>
database-aligned.sdf

> <s_m_Source_Path>
/data/matteo/P2Y14-antagonists-piperidineDerivatives-Wen2023/14052024-optimized-alignment

> <s_m_entry_id>
75

> <s_m_entry_name>
database-aligned.75

> <s_m_job_name>
align_ligands_1

> <s_phase_Alignment_Method>
snapped core

> <s_phase_Alignment_Reason>


> <s_phase_Core_SMARTS>
a1aaaa1-a2aaa(aa2)-a3aa(aaa3)-a4aaa(a4)-a5aaaaa5

$$$$
129
                    3D
 Schrodinger Suite 2023-2.
 53 57  0  0  1  0            999 V2000
   -4.8466   -3.4241    1.6134 F   0  0  0  0  0  0
   -5.0120   -2.1173    1.8111 C   0  0  0  0  0  0
   -5.9312   -1.6407    0.9732 F   0  0  0  0  0  0
   -5.3787   -1.8881    3.0709 F   0  0  0  0  0  0
   -3.7102   -1.4192    1.5505 C   0  0  0  0  0  0
   -2.5092   -2.0790    1.7828 C   0  0  0  0  0  0
   -3.7049   -0.1126    1.0769 C   0  0  0  0  0  0
   -1.3030   -1.4321    1.5414 C   0  0  0  0  0  0
   -2.4987    0.5343    0.8355 C   0  0  0  0  0  0
   -1.2977   -0.1255    1.0677 C   0  0  0  0  0  0
    0.0041    0.5726    0.8072 C   0  0  0  0  0  0
    0.0745    1.8131    0.3572 N   0  0  0  0  0  0
    1.2788    0.0570    0.9868 C   0  0  0  0  0  0
    1.4087    2.1505    0.2272 N   0  0  0  0  0  0
    2.1133    1.0787    0.6116 N   0  0  0  0  0  0
    3.5729    1.0430    0.6162 C   0  0  0  0  0  0
    4.2688   -0.0378   -0.0014 C   0  0  0  0  0  0
    4.3095    2.0826    1.2307 C   0  0  0  0  0  0
    5.6959   -0.0428    0.0147 C   0  0  0  0  0  0
    5.7140    2.0823    1.2549 C   0  0  0  0  0  0
    6.4845   -1.1328   -0.6109 C   0  0  0  0  0  0
    6.3738    1.0063    0.6388 C   0  0  0  0  0  0
    6.4824    3.1926    1.9177 C   0  0  0  0  0  0
    6.8885   -2.2318    0.1496 C   0  0  0  0  0  0
    6.8196   -1.0713   -1.9653 C   0  0  0  0  0  0
    7.7329    3.1460    1.9172 O   0  0  0  0  0  0
    5.8483    4.1301    2.4513 O   0  5  0  0  0  0
    7.6134   -3.2639   -0.4389 C   0  0  0  0  0  0
    7.5469   -2.1010   -2.5562 C   0  0  0  0  0  0
    7.9469   -3.2050   -1.7964 C   0  0  0  0  0  0
    8.7289   -4.2965   -2.3996 C   0  0  0  0  0  0
    8.8333   -4.4074   -3.7179 N   0  0  0  0  0  0
    9.4492   -5.3393   -1.7468 C   0  0  0  0  0  0
    9.6338   -5.5277   -3.9623 O   0  0  0  0  0  0
    9.9915   -6.0638   -2.7693 C   0  0  0  0  0  0
   10.8592   -7.2773   -2.8040 C   0  0  0  0  0  0
   12.0956   -7.0359   -3.4396 O   0  0  0  0  0  0
   -2.5032   -3.0919    2.1578 H   0  0  0  0  0  0
   -4.6330    0.4109    0.9003 H   0  0  0  0  0  0
   -0.3800   -1.9596    1.7292 H   0  0  0  0  0  0
   -2.5153    1.5503    0.4693 H   0  0  0  0  0  0
    1.6395   -0.8997    1.3335 H   0  0  0  0  0  0
    3.7255   -0.8401   -0.4789 H   0  0  0  0  0  0
    3.7660    2.8931    1.6949 H   0  0  0  0  0  0
    7.4543    0.9795    0.6404 H   0  0  0  0  0  0
    6.6342   -2.2864    1.1982 H   0  0  0  0  0  0
    6.5131   -0.2230   -2.5600 H   0  0  0  0  0  0
    7.9119   -4.1056    0.1679 H   0  0  0  0  0  0
    7.7973   -2.0267   -3.6043 H   0  0  0  0  0  0
    9.5611   -5.5262   -0.6894 H   0  0  0  0  0  0
   11.0536   -7.6259   -1.7897 H   0  0  0  0  0  0
   10.3468   -8.0861   -3.3252 H   0  0  0  0  0  0
   12.5983   -7.8360   -3.4318 H   0  0  0  0  0  0
  1  2  1  0  0  0
  2  3  1  0  0  0
  2  4  1  0  0  0
  2  5  1  0  0  0
  5  6  2  0  0  0
  5  7  1  0  0  0
  6  8  1  0  0  0
  6 38  1  0  0  0
  7  9  2  0  0  0
  7 39  1  0  0  0
  8 10  2  0  0  0
  8 40  1  0  0  0
  9 10  1  0  0  0
  9 41  1  0  0  0
 10 11  1  0  0  0
 11 12  1  0  0  0
 11 13  2  0  0  0
 12 14  2  0  0  0
 13 15  1  0  0  0
 13 42  1  0  0  0
 14 15  1  0  0  0
 15 16  1  0  0  0
 16 17  2  0  0  0
 16 18  1  0  0  0
 17 19  1  0  0  0
 17 43  1  0  0  0
 18 20  2  0  0  0
 18 44  1  0  0  0
 19 21  1  0  0  0
 19 22  2  0  0  0
 20 23  1  0  0  0
 20 22  1  0  0  0
 21 24  2  0  0  0
 21 25  1  0  0  0
 22 45  1  0  0  0
 23 26  2  0  0  0
 23 27  1  0  0  0
 24 28  1  0  0  0
 24 46  1  0  0  0
 25 29  2  0  0  0
 25 47  1  0  0  0
 28 30  2  0  0  0
 28 48  1  0  0  0
 29 30  1  0  0  0
 29 49  1  0  0  0
 30 31  1  0  0  0
 31 32  2  0  0  0
 31 33  1  0  0  0
 32 34  1  0  0  0
 33 35  2  0  0  0
 33 50  1  0  0  0
 34 35  1  0  0  0
 35 36  1  0  0  0
 36 37  1  0  0  0
 36 51  1  0  0  0
 36 52  1  0  0  0
 37 53  1  0  0  0
M  CHG  1  27  -1
M  END
> <i_epik_Tot_Q>
-1

> <i_epik_Tot_abs_Q>
1

> <i_lp_mmshare_version>
62121

> <i_m_Source_File_Index>
76

> <i_phase_Input_Structure_Number>
96

> <i_phase_Reference_Structure>
97

> <i_phase_Structure_Number>
96

> <Molecule Name>
129

> <Rotatable Bonds>
7

> <i_f3d_flags>
0

> <b_lp_Chiralities_Consistent>
1

> <r_canvas_IC50_human_P2Y14R,_nM>
296

> <r_canvas_pIC50>
6.52870828894106

> <r_epik_Charging_Adjusted_Penalty>
0.000166961650298847

> <r_epik_Ionization_Penalty>
  0.0002

> <r_epik_Ionization_Penalty_Charging>
  0.0002

> <r_epik_Ionization_Penalty_Neutral>
  0.0001

> <r_epik_State_Penalty>
  0.0000

> <r_lp_Energy>
52.264408

> <r_lp_tautomer_probability>
1

> <r_phase_Similarity_to_Reference>
0.963720456588342

> <s_canvas_CHEMBLID>
CHEMBL4218414

> <s_canvas_Compound>
29

> <s_canvas_Paper>
Jung2021

> <s_epik_cmdline>
J2VwaWtfcHl0aG9uJywgJy1waCcsICc3LjAnLCAnLXRuJywgJzgnLCAnLW1hJywgJzUwMCcsICctaW1hZScsICc8aW5maWxlLm1hZT4nLCAnLW9tYWUnLCAnPG91dGZpbGUubWFlPic=

> <s_epik_input>
RkMoRikoRiljMVtjSF1bY0hdYyhbY0hdW2NIXTEpLWMybm5uKFtjSF0yKS1jM1tjSF1jKFtjSF1jKFtjSF0zKUMoPU8pW09IXSktYzRbY0hdW2NIXWMoW2NIXVtjSF00KS1jNW5vYyhbY0hdNSlbQ0gyXVtPSF0=

> <s_lp_Force_Field>
S-OPLS

> <s_lp_Variant>
129-1

> <s_m_Source_File>
database-aligned.sdf

> <s_m_Source_Path>
/data/matteo/P2Y14-antagonists-piperidineDerivatives-Wen2023/14052024-optimized-alignment

> <s_m_entry_id>
76

> <s_m_entry_name>
database-aligned.76

> <s_m_job_name>
align_ligands_1

> <s_phase_Alignment_Method>
snapped core

> <s_phase_Alignment_Reason>


> <s_phase_Core_SMARTS>
a1aaaa1-a2aaa(aa2)-a3aa(aaa3)-a4aaa(a4)-a5aaaaa5

$$$$
130
                    3D
 Schrodinger Suite 2023-2.
 56 60  0  0  1  0            999 V2000
   -4.8466   -3.4241    1.6134 F   0  0  0  0  0  0
   -5.0120   -2.1173    1.8111 C   0  0  0  0  0  0
   -5.9312   -1.6407    0.9732 F   0  0  0  0  0  0
   -5.3787   -1.8881    3.0709 F   0  0  0  0  0  0
   -3.7102   -1.4192    1.5505 C   0  0  0  0  0  0
   -2.5092   -2.0790    1.7828 C   0  0  0  0  0  0
   -3.7049   -0.1126    1.0769 C   0  0  0  0  0  0
   -1.3030   -1.4321    1.5414 C   0  0  0  0  0  0
   -2.4987    0.5343    0.8355 C   0  0  0  0  0  0
   -1.2977   -0.1255    1.0677 C   0  0  0  0  0  0
    0.0041    0.5726    0.8072 C   0  0  0  0  0  0
    0.0745    1.8131    0.3572 N   0  0  0  0  0  0
    1.2788    0.0570    0.9868 C   0  0  0  0  0  0
    1.4087    2.1505    0.2272 N   0  0  0  0  0  0
    2.1133    1.0787    0.6116 N   0  0  0  0  0  0
    3.5729    1.0430    0.6162 C   0  0  0  0  0  0
    4.2688   -0.0378   -0.0014 C   0  0  0  0  0  0
    4.3095    2.0826    1.2307 C   0  0  0  0  0  0
    5.6959   -0.0428    0.0147 C   0  0  0  0  0  0
    5.7140    2.0823    1.2549 C   0  0  0  0  0  0
    6.4845   -1.1328   -0.6109 C   0  0  0  0  0  0
    6.3738    1.0063    0.6388 C   0  0  0  0  0  0
    6.4824    3.1926    1.9177 C   0  0  0  0  0  0
    6.8885   -2.2318    0.1496 C   0  0  0  0  0  0
    6.8196   -1.0713   -1.9653 C   0  0  0  0  0  0
    7.7329    3.1460    1.9172 O   0  0  0  0  0  0
    5.8483    4.1301    2.4513 O   0  5  0  0  0  0
    7.6134   -3.2639   -0.4389 C   0  0  0  0  0  0
    7.5469   -2.1010   -2.5562 C   0  0  0  0  0  0
    7.9469   -3.2050   -1.7964 C   0  0  0  0  0  0
    8.7289   -4.2965   -2.3996 C   0  0  0  0  0  0
    8.8333   -4.4074   -3.7179 N   0  0  0  0  0  0
    9.4492   -5.3393   -1.7468 C   0  0  0  0  0  0
    9.6338   -5.5277   -3.9623 O   0  0  0  0  0  0
    9.9915   -6.0638   -2.7693 C   0  0  0  0  0  0
   10.8657   -7.2743   -2.8071 C   0  0  0  0  0  0
   12.2796   -6.9940   -3.3376 C   0  0  0  0  0  0
   13.0218   -6.2451   -2.3976 O   0  0  0  0  0  0
   -2.5036   -3.0919    2.1577 H   0  0  0  0  0  0
   -4.6330    0.4108    0.9003 H   0  0  0  0  0  0
   -0.3799   -1.9596    1.7292 H   0  0  0  0  0  0
   -2.5153    1.5504    0.4693 H   0  0  0  0  0  0
    1.6396   -0.8997    1.3335 H   0  0  0  0  0  0
    3.7255   -0.8400   -0.4791 H   0  0  0  0  0  0
    3.7661    2.8937    1.6942 H   0  0  0  0  0  0
    7.4543    0.9796    0.6394 H   0  0  0  0  0  0
    6.6342   -2.2866    1.1981 H   0  0  0  0  0  0
    6.5134   -0.2229   -2.5600 H   0  0  0  0  0  0
    7.9123   -4.1056    0.1678 H   0  0  0  0  0  0
    7.7976   -2.0266   -3.6043 H   0  0  0  0  0  0
    9.5629   -5.5259   -0.6894 H   0  0  0  0  0  0
   10.9218   -7.7229   -1.8144 H   0  0  0  0  0  0
   10.3932   -8.0212   -3.4458 H   0  0  0  0  0  0
   12.8050   -7.9341   -3.5069 H   0  0  0  0  0  0
   12.2458   -6.4675   -4.2922 H   0  0  0  0  0  0
   13.8838   -6.0866   -2.7512 H   0  0  0  0  0  0
  1  2  1  0  0  0
  2  3  1  0  0  0
  2  4  1  0  0  0
  2  5  1  0  0  0
  5  6  2  0  0  0
  5  7  1  0  0  0
  6  8  1  0  0  0
  6 39  1  0  0  0
  7  9  2  0  0  0
  7 40  1  0  0  0
  8 10  2  0  0  0
  8 41  1  0  0  0
  9 10  1  0  0  0
  9 42  1  0  0  0
 10 11  1  0  0  0
 11 12  1  0  0  0
 11 13  2  0  0  0
 12 14  2  0  0  0
 13 15  1  0  0  0
 13 43  1  0  0  0
 14 15  1  0  0  0
 15 16  1  0  0  0
 16 17  2  0  0  0
 16 18  1  0  0  0
 17 19  1  0  0  0
 17 44  1  0  0  0
 18 20  2  0  0  0
 18 45  1  0  0  0
 19 21  1  0  0  0
 19 22  2  0  0  0
 20 23  1  0  0  0
 20 22  1  0  0  0
 21 24  2  0  0  0
 21 25  1  0  0  0
 22 46  1  0  0  0
 23 26  2  0  0  0
 23 27  1  0  0  0
 24 28  1  0  0  0
 24 47  1  0  0  0
 25 29  2  0  0  0
 25 48  1  0  0  0
 28 30  2  0  0  0
 28 49  1  0  0  0
 29 30  1  0  0  0
 29 50  1  0  0  0
 30 31  1  0  0  0
 31 32  2  0  0  0
 31 33  1  0  0  0
 32 34  1  0  0  0
 33 35  2  0  0  0
 33 51  1  0  0  0
 34 35  1  0  0  0
 35 36  1  0  0  0
 36 37  1  0  0  0
 36 52  1  0  0  0
 36 53  1  0  0  0
 37 38  1  0  0  0
 37 54  1  0  0  0
 37 55  1  0  0  0
 38 56  1  0  0  0
M  CHG  1  27  -1
M  END
> <i_epik_Tot_Q>
-1

> <i_epik_Tot_abs_Q>
1

> <i_lp_mmshare_version>
62121

> <i_m_Source_File_Index>
77

> <i_phase_Input_Structure_Number>
97

> <i_phase_Reference_Structure>
41

> <i_phase_Structure_Number>
97

> <Molecule Name>
130

> <Rotatable Bonds>
8

> <i_f3d_flags>
0

> <b_lp_Chiralities_Consistent>
1

> <r_canvas_IC50_human_P2Y14R,_nM>
389

> <r_canvas_pIC50>
6.41005039867429

> <r_epik_Charging_Adjusted_Penalty>
0.000166961650298847

> <r_epik_Ionization_Penalty>
  0.0002

> <r_epik_Ionization_Penalty_Charging>
  0.0002

> <r_epik_Ionization_Penalty_Neutral>
  0.0000

> <r_epik_State_Penalty>
  0.0000

> <r_lp_Energy>
47.161986

> <r_lp_tautomer_probability>
1

> <r_phase_Similarity_to_Reference>
0.846318979959345

> <s_canvas_CHEMBLID>
CHEMBL4217776

> <s_canvas_Compound>
30

> <s_canvas_Paper>
Jung2021

> <s_epik_cmdline>
J2VwaWtfcHl0aG9uJywgJy1waCcsICc3LjAnLCAnLXRuJywgJzgnLCAnLW1hJywgJzUwMCcsICctaW1hZScsICc8aW5maWxlLm1hZT4nLCAnLW9tYWUnLCAnPG91dGZpbGUubWFlPic=

> <s_epik_input>
RkMoRikoRiljMVtjSF1bY0hdYyhbY0hdW2NIXTEpLWMybm5uKFtjSF0yKS1jM1tjSF1jKFtjSF1jKFtjSF0zKUMoPU8pW09IXSktYzRbY0hdW2NIXWMoW2NIXVtjSF00KS1jNW5vYyhbY0hdNSlbQ0gyXVtDSDJdW09IXQ==

> <s_lp_Force_Field>
S-OPLS

> <s_lp_Variant>
130-1

> <s_m_Source_File>
database-aligned.sdf

> <s_m_Source_Path>
/data/matteo/P2Y14-antagonists-piperidineDerivatives-Wen2023/14052024-optimized-alignment

> <s_m_entry_id>
77

> <s_m_entry_name>
database-aligned.77

> <s_m_job_name>
align_ligands_1

> <s_phase_Alignment_Method>
snapped core

> <s_phase_Alignment_Reason>


> <s_phase_Core_SMARTS>
a1aaaaa1-a2aa(aa2)-a3aaaa(a3)-a4aaaaa4

$$$$
131
                    3D
 Schrodinger Suite 2023-2.
 47 51  0  0  1  0            999 V2000
   -4.8466   -3.4241    1.6134 F   0  0  0  0  0  0
   -5.0120   -2.1173    1.8111 C   0  0  0  0  0  0
   -5.9312   -1.6407    0.9732 F   0  0  0  0  0  0
   -5.3787   -1.8881    3.0709 F   0  0  0  0  0  0
   -3.7102   -1.4192    1.5505 C   0  0  0  0  0  0
   -3.7049   -0.1126    1.0769 C   0  0  0  0  0  0
   -2.5092   -2.0790    1.7828 C   0  0  0  0  0  0
   -2.4987    0.5343    0.8355 C   0  0  0  0  0  0
   -1.3030   -1.4321    1.5414 C   0  0  0  0  0  0
   -1.2977   -0.1255    1.0677 C   0  0  0  0  0  0
    0.0041    0.5726    0.8072 C   0  0  0  0  0  0
    0.0745    1.8131    0.3572 N   0  0  0  0  0  0
    1.2788    0.0570    0.9868 C   0  0  0  0  0  0
    1.4087    2.1505    0.2272 N   0  0  0  0  0  0
    2.1133    1.0787    0.6116 N   0  0  0  0  0  0
    3.5729    1.0430    0.6162 C   0  0  0  0  0  0
    4.2688   -0.0378   -0.0014 C   0  0  0  0  0  0
    4.3095    2.0826    1.2307 C   0  0  0  0  0  0
    5.6959   -0.0428    0.0147 C   0  0  0  0  0  0
    5.7140    2.0823    1.2549 C   0  0  0  0  0  0
    6.4845   -1.1328   -0.6109 C   0  0  0  0  0  0
    6.3738    1.0063    0.6388 C   0  0  0  0  0  0
    6.4824    3.1926    1.9177 C   0  0  0  0  0  0
    6.8885   -2.2318    0.1496 C   0  0  0  0  0  0
    6.8196   -1.0713   -1.9653 C   0  0  0  0  0  0
    7.7329    3.1460    1.9172 O   0  0  0  0  0  0
    5.8483    4.1301    2.4513 O   0  5  0  0  0  0
    7.6134   -3.2639   -0.4389 C   0  0  0  0  0  0
    7.5469   -2.1010   -2.5562 C   0  0  0  0  0  0
    7.9469   -3.2050   -1.7964 C   0  0  0  0  0  0
    8.7289   -4.2965   -2.3996 C   0  0  0  0  0  0
    8.8333   -4.4074   -3.7179 N   0  0  0  0  0  0
    9.4492   -5.3393   -1.7468 N   0  5  0  0  0  0
    9.6338   -5.5277   -3.9623 N   0  0  0  0  0  0
    9.9915   -6.0638   -2.7693 N   0  0  0  0  0  0
   -4.6330    0.4101    0.8982 H   0  0  0  0  0  0
   -2.5032   -3.0926    2.1557 H   0  0  0  0  0  0
   -2.5153    1.5501    0.4688 H   0  0  0  0  0  0
   -0.3799   -1.9598    1.7287 H   0  0  0  0  0  0
    1.6396   -0.8999    1.3335 H   0  0  0  0  0  0
    3.7258   -0.8403   -0.4790 H   0  0  0  0  0  0
    3.7666    2.8935    1.6948 H   0  0  0  0  0  0
    7.4542    0.9787    0.6396 H   0  0  0  0  0  0
    6.6347   -2.2868    1.1982 H   0  0  0  0  0  0
    6.5135   -0.2230   -2.5601 H   0  0  0  0  0  0
    7.9155   -4.1069    0.1651 H   0  0  0  0  0  0
    7.7961   -2.0215   -3.6041 H   0  0  0  0  0  0
  1  2  1  0  0  0
  2  3  1  0  0  0
  2  4  1  0  0  0
  2  5  1  0  0  0
  5  6  2  0  0  0
  5  7  1  0  0  0
  6  8  1  0  0  0
  6 36  1  0  0  0
  7  9  2  0  0  0
  7 37  1  0  0  0
  8 10  2  0  0  0
  8 38  1  0  0  0
  9 10  1  0  0  0
  9 39  1  0  0  0
 10 11  1  0  0  0
 11 12  1  0  0  0
 11 13  2  0  0  0
 12 14  2  0  0  0
 13 15  1  0  0  0
 13 40  1  0  0  0
 14 15  1  0  0  0
 15 16  1  0  0  0
 16 17  2  0  0  0
 16 18  1  0  0  0
 17 19  1  0  0  0
 17 41  1  0  0  0
 18 20  2  0  0  0
 18 42  1  0  0  0
 19 21  1  0  0  0
 19 22  2  0  0  0
 20 23  1  0  0  0
 20 22  1  0  0  0
 21 24  2  0  0  0
 21 25  1  0  0  0
 22 43  1  0  0  0
 23 26  2  0  0  0
 23 27  1  0  0  0
 24 28  1  0  0  0
 24 44  1  0  0  0
 25 29  2  0  0  0
 25 45  1  0  0  0
 28 30  2  0  0  0
 28 46  1  0  0  0
 29 30  1  0  0  0
 29 47  1  0  0  0
 30 31  1  0  0  0
 31 32  2  0  0  0
 31 33  1  0  0  0
 32 34  1  0  0  0
 33 35  1  0  0  0
 34 35  2  0  0  0
M  CHG  2  27  -1  33  -1
M  END
> <i_epik_Tot_Q>
-2

> <i_epik_Tot_abs_Q>
2

> <i_lp_mmshare_version>
62121

> <i_m_Source_File_Index>
78

> <i_phase_Input_Structure_Number>
98

> <i_phase_Reference_Structure>
97

> <i_phase_Structure_Number>
98

> <Molecule Name>
131

> <Rotatable Bonds>
6

> <i_f3d_flags>
0

> <b_lp_Chiralities_Consistent>
1

> <r_canvas_IC50_human_P2Y14R,_nM>
895

> <r_canvas_pIC50>
6.04817696468409

> <r_epik_Charging_Adjusted_Penalty>
0.00173854233045313

> <r_epik_Ionization_Penalty>
  0.0011

> <r_epik_Ionization_Penalty_Charging>
  0.0011

> <r_epik_Ionization_Penalty_Neutral>
  0.0000

> <r_epik_State_Penalty>
  0.0006

> <r_lp_Energy>
48.481624

> <r_lp_tautomer_probability>
1

> <r_phase_Similarity_to_Reference>
0.861039793346127

> <s_canvas_CHEMBLID>
CHEMBL4217398

> <s_canvas_Compound>
31

> <s_canvas_Paper>
Jung2021

> <s_epik_cmdline>
J2VwaWtfcHl0aG9uJywgJy1waCcsICc3LjAnLCAnLXRuJywgJzgnLCAnLW1hJywgJzUwMCcsICctaW1hZScsICc8aW5maWxlLm1hZT4nLCAnLW9tYWUnLCAnPG91dGZpbGUubWFlPic=

> <s_epik_input>
RkMoRikoRiljMVtjSF1bY0hdYyhbY0hdW2NIXTEpLWMybm5uKFtjSF0yKS1jM1tjSF1jKFtjSF1jKFtjSF0zKUMoPU8pW09IXSktYzRbY0hdW2NIXWMoW2NIXVtjSF00KS1jNW5ubltuSF01

> <s_lp_Force_Field>
S-OPLS

> <s_lp_Variant>
131-1

> <s_m_Source_File>
database-aligned.sdf

> <s_m_Source_Path>
/data/matteo/P2Y14-antagonists-piperidineDerivatives-Wen2023/14052024-optimized-alignment

> <s_m_entry_id>
78

> <s_m_entry_name>
database-aligned.78

> <s_m_job_name>
align_ligands_1

> <s_phase_Alignment_Method>
snapped core

> <s_phase_Alignment_Reason>


> <s_phase_Core_SMARTS>
a1aaaa1-a2aaa(aa2)-a3aa(aaa3)-a4aaa(a4)-a5aaaaa5

$$$$
132
                    3D
 Schrodinger Suite 2023-2.
 53 57  0  0  1  0            999 V2000
   -5.0261    1.4324    0.2838 F   0  0  0  0  0  0
   -4.4843    0.5364    1.1094 C   0  0  0  0  0  0
   -4.7261    0.9091    2.3654 F   0  0  0  0  0  0
   -5.0718   -0.6406    0.8904 F   0  0  0  0  0  0
   -2.9805    0.4435    0.8954 C   0  0  0  0  0  0
   -2.2992   -0.7723    1.1122 C   0  0  0  0  0  0
   -2.2454    1.5776    0.4941 C   0  0  0  0  0  0
   -0.9062   -0.8510    0.9207 C   0  0  0  0  0  0
   -0.8521    1.4946    0.3065 C   0  0  0  0  0  0
   -0.1610    0.2796    0.5158 C   0  0  0  0  0  0
    1.3001    0.1930    0.3226 C   0  0  0  0  0  0
    2.1524    1.2383    0.7416 C   0  0  0  0  0  0
    1.8847   -0.9390   -0.2850 C   0  0  0  0  0  0
    3.5501    1.1548    0.5712 C   0  0  0  0  0  0
    3.2777   -1.0307   -0.4622 C   0  0  0  0  0  0
    4.1320    0.0089   -0.0274 C   0  0  0  0  0  0
    4.3632    2.2211    1.0016 C   0  0  0  0  0  0
    5.5422   -0.0679   -0.1843 C   0  0  0  0  0  0
    5.7637    2.1649    0.8405 C   0  0  0  0  0  0
    6.2189   -1.2368   -0.7759 C   0  0  0  0  0  0
    6.3353    1.0178    0.2468 C   0  0  0  0  0  0
    6.6335    3.3065    1.2938 C   0  0  0  0  0  0
    6.1956   -2.4906   -0.1313 C   0  0  0  0  0  0
    6.9102   -1.1235   -1.9992 C   0  0  0  0  0  0
    7.8718    3.2234    1.1339 O   0  0  0  0  0  0
    6.0939    4.3069    1.8173 O   0  5  0  0  0  0
    6.8300   -3.6077   -0.7058 C   0  0  0  0  0  0
    7.5479   -2.2386   -2.5763 C   0  0  0  0  0  0
    7.5223   -3.4998   -1.9335 C   0  0  0  0  0  0
    8.2147   -4.6484   -2.5365 C   0  0  0  0  0  0
    8.0447   -5.8724   -2.0547 N   0  0  0  0  0  0
    9.1115   -4.6605   -3.6438 C   0  0  0  0  0  0
    8.8338   -6.7210   -2.8380 O   0  0  0  0  0  0
    9.4634   -5.9738   -3.7784 C   0  0  0  0  0  0
   10.3651   -6.7044   -4.7182 C   0  0  0  0  0  0
   11.1457   -5.8363   -5.5126 O   0  0  0  0  0  0
   -2.8394   -1.6516    1.4301 H   0  0  0  0  0  0
   -2.7482    2.5192    0.3299 H   0  0  0  0  0  0
   -0.4076   -1.7927    1.0990 H   0  0  0  0  0  0
   -0.3137    2.3772   -0.0066 H   0  0  0  0  0  0
    1.7301    2.1151    1.2106 H   0  0  0  0  0  0
    1.2616   -1.7515   -0.6290 H   0  0  0  0  0  0
    3.6723   -1.9143   -0.9399 H   0  0  0  0  0  0
    3.9029    3.0874    1.4552 H   0  0  0  0  0  0
    7.4069    0.9557    0.1215 H   0  0  0  0  0  0
    5.6783   -2.6001    0.8107 H   0  0  0  0  0  0
    6.9459   -0.1713   -2.5080 H   0  0  0  0  0  0
    6.7891   -4.5510   -0.1812 H   0  0  0  0  0  0
    8.0640   -2.1128   -3.5163 H   0  0  0  0  0  0
    9.4534   -3.8330   -4.2472 H   0  0  0  0  0  0
   11.0343   -7.3581   -4.1578 H   0  0  0  0  0  0
    9.7742   -7.3417   -5.3765 H   0  0  0  0  0  0
   11.6960   -6.3585   -6.0760 H   0  0  0  0  0  0
  1  2  1  0  0  0
  2  3  1  0  0  0
  2  4  1  0  0  0
  2  5  1  0  0  0
  5  6  2  0  0  0
  5  7  1  0  0  0
  6  8  1  0  0  0
  6 37  1  0  0  0
  7  9  2  0  0  0
  7 38  1  0  0  0
  8 10  2  0  0  0
  8 39  1  0  0  0
  9 10  1  0  0  0
  9 40  1  0  0  0
 10 11  1  0  0  0
 11 12  2  0  0  0
 11 13  1  0  0  0
 12 14  1  0  0  0
 12 41  1  0  0  0
 13 15  2  0  0  0
 13 42  1  0  0  0
 14 16  1  0  0  0
 14 17  2  0  0  0
 15 16  1  0  0  0
 15 43  1  0  0  0
 16 18  2  0  0  0
 17 19  1  0  0  0
 17 44  1  0  0  0
 18 20  1  0  0  0
 18 21  1  0  0  0
 19 22  1  0  0  0
 19 21  2  0  0  0
 20 23  2  0  0  0
 20 24  1  0  0  0
 21 45  1  0  0  0
 22 25  2  0  0  0
 22 26  1  0  0  0
 23 27  1  0  0  0
 23 46  1  0  0  0
 24 28  2  0  0  0
 24 47  1  0  0  0
 27 29  2  0  0  0
 27 48  1  0  0  0
 28 29  1  0  0  0
 28 49  1  0  0  0
 29 30  1  0  0  0
 30 31  2  0  0  0
 30 32  1  0  0  0
 31 33  1  0  0  0
 32 34  2  0  0  0
 32 50  1  0  0  0
 33 34  1  0  0  0
 34 35  1  0  0  0
 35 36  1  0  0  0
 35 51  1  0  0  0
 35 52  1  0  0  0
 36 53  1  0  0  0
M  CHG  1  26  -1
M  END
> <i_epik_Tot_Q>
-1

> <i_epik_Tot_abs_Q>
1

> <i_lp_mmshare_version>
62121

> <i_m_Source_File_Index>
79

> <i_phase_Input_Structure_Number>
99

> <i_phase_Reference_Structure>
116

> <i_phase_Structure_Number>
99

> <Molecule Name>
132

> <Rotatable Bonds>
6

> <i_f3d_flags>
0

> <b_lp_Chiralities_Consistent>
1

> <r_canvas_IC50_human_P2Y14R,_nM>
15

> <r_canvas_pIC50>
7.82390874094432

> <r_epik_Charging_Adjusted_Penalty>
0.00118161601170164

> <r_epik_Ionization_Penalty>
  0.0006

> <r_epik_Ionization_Penalty_Charging>
  0.0006

> <r_epik_Ionization_Penalty_Neutral>
  0.0001

> <r_epik_State_Penalty>
  0.0006

> <r_lp_Energy>
60.119248

> <r_phase_Similarity_to_Reference>
0.715611882776761

> <s_canvas_CHEMBLID>
CHEMBL4216870

> <s_canvas_Compound>
32

> <s_canvas_Paper>
Jung2021

> <s_epik_cmdline>
J2VwaWtfcHl0aG9uJywgJy1waCcsICc3LjAnLCAnLXRuJywgJzgnLCAnLW1hJywgJzUwMCcsICctaW1hZScsICc8aW5maWxlLm1hZT4nLCAnLW9tYWUnLCAnPG91dGZpbGUubWFlPic=

> <s_epik_input>
RkMoRikoRiljMVtjSF1bY0hdYyhbY0hdW2NIXTEpLWMoW2NIXTIpW2NIXVtjSF1jKGMyMyljKFtjSF1jKFtjSF0zKUMoPU8pW09IXSktYzRbY0hdW2NIXWMoW2NIXVtjSF00KS1jNW5vYyhbY0hdNSlbQ0gyXVtPSF0=

> <s_lp_Force_Field>
S-OPLS

> <s_lp_Variant>
132-1

> <s_m_Source_File>
database-aligned.sdf

> <s_m_Source_Path>
/data/matteo/P2Y14-antagonists-piperidineDerivatives-Wen2023/14052024-optimized-alignment

> <s_m_entry_id>
79

> <s_m_entry_name>
database-aligned.79

> <s_m_job_name>
align_ligands_1

> <s_phase_Alignment_Method>
snapped core

> <s_phase_Alignment_Reason>


> <s_phase_Core_SMARTS>
a1aaaaa1-a(a2)aaa(a23)a(aaa3)-a4aaaaa4

$$$$
133
                    3D
 Schrodinger Suite 2023-2.
 51 54  0  0  1  0            999 V2000
   -4.5684    3.0741   -0.0225 F   0  0  0  0  0  0
   -4.3483    1.9949    0.7295 C   0  0  0  0  0  0
   -4.6535    2.2866    1.9934 F   0  0  0  0  0  0
   -5.1528    1.0190    0.3074 F   0  0  0  0  0  0
   -2.8977    1.5420    0.6556 C   0  0  0  0  0  0
   -2.5347    0.2747    1.1569 C   0  0  0  0  0  0
   -1.9015    2.3740    0.1009 C   0  0  0  0  0  0
   -1.1959   -0.1584    1.1023 C   0  0  0  0  0  0
   -0.5620    1.9422    0.0461 C   0  0  0  0  0  0
   -0.1951    0.6747    0.5553 C   0  0  0  0  0  0
    1.2274    0.1939    0.4864 C   0  0  0  0  0  0
    1.4709   -1.0082    0.3800 O   0  0  0  0  0  0
    2.1567    1.1577    0.6338 N   0  0  0  0  0  0
    3.5729    1.0430    0.6162 C   0  0  0  0  0  0
    4.2688   -0.0378   -0.0014 C   0  0  0  0  0  0
    4.3095    2.0826    1.2307 C   0  0  0  0  0  0
    5.6959   -0.0428    0.0147 C   0  0  0  0  0  0
    5.7140    2.0823    1.2549 C   0  0  0  0  0  0
    6.4845   -1.1328   -0.6109 C   0  0  0  0  0  0
    6.3738    1.0063    0.6388 C   0  0  0  0  0  0
    6.4824    3.1926    1.9177 C   0  0  0  0  0  0
    6.8885   -2.2318    0.1496 C   0  0  0  0  0  0
    6.8196   -1.0713   -1.9653 C   0  0  0  0  0  0
    7.7329    3.1460    1.9172 O   0  0  0  0  0  0
    5.8483    4.1301    2.4513 O   0  5  0  0  0  0
    7.6134   -3.2639   -0.4389 C   0  0  0  0  0  0
    7.5469   -2.1010   -2.5562 C   0  0  0  0  0  0
    7.9469   -3.2050   -1.7964 C   0  0  0  0  0  0
    8.7289   -4.2965   -2.3996 C   0  0  0  0  0  0
    8.8333   -4.4074   -3.7179 N   0  0  0  0  0  0
    9.4492   -5.3393   -1.7468 C   0  0  0  0  0  0
    9.6338   -5.5277   -3.9623 O   0  0  0  0  0  0
    9.9915   -6.0638   -2.7693 C   0  0  0  0  0  0
   10.8592   -7.2773   -2.8040 C   0  0  0  0  0  0
   12.0956   -7.0359   -3.4396 O   0  0  0  0  0  0
   -3.2866   -0.3712    1.5864 H   0  0  0  0  0  0
   -2.1554    3.3485   -0.2880 H   0  0  0  0  0  0
   -0.9430   -1.1347    1.4906 H   0  0  0  0  0  0
    0.1777    2.5953   -0.3941 H   0  0  0  0  0  0
    1.8026    2.0826    0.8307 H   0  0  0  0  0  0
    3.7501   -0.8415   -0.5006 H   0  0  0  0  0  0
    3.7680    2.8971    1.6905 H   0  0  0  0  0  0
    7.4542    0.9796    0.6394 H   0  0  0  0  0  0
    6.6334   -2.2867    1.1980 H   0  0  0  0  0  0
    6.5126   -0.2233   -2.5600 H   0  0  0  0  0  0
    7.9114   -4.1059    0.1678 H   0  0  0  0  0  0
    7.7970   -2.0269   -3.6043 H   0  0  0  0  0  0
    9.5604   -5.5269   -0.6893 H   0  0  0  0  0  0
   11.0521   -7.6278   -1.7900 H   0  0  0  0  0  0
   10.3475   -8.0856   -3.3270 H   0  0  0  0  0  0
   12.5983   -7.8360   -3.4318 H   0  0  0  0  0  0
  1  2  1  0  0  0
  2  3  1  0  0  0
  2  4  1  0  0  0
  2  5  1  0  0  0
  5  6  2  0  0  0
  5  7  1  0  0  0
  6  8  1  0  0  0
  6 36  1  0  0  0
  7  9  2  0  0  0
  7 37  1  0  0  0
  8 10  2  0  0  0
  8 38  1  0  0  0
  9 10  1  0  0  0
  9 39  1  0  0  0
 10 11  1  0  0  0
 11 12  2  0  0  0
 11 13  1  0  0  0
 13 14  1  0  0  0
 13 40  1  0  0  0
 14 15  2  0  0  0
 14 16  1  0  0  0
 15 17  1  0  0  0
 15 41  1  0  0  0
 16 18  2  0  0  0
 16 42  1  0  0  0
 17 19  1  0  0  0
 17 20  2  0  0  0
 18 21  1  0  0  0
 18 20  1  0  0  0
 19 22  2  0  0  0
 19 23  1  0  0  0
 20 43  1  0  0  0
 21 24  2  0  0  0
 21 25  1  0  0  0
 22 26  1  0  0  0
 22 44  1  0  0  0
 23 27  2  0  0  0
 23 45  1  0  0  0
 26 28  2  0  0  0
 26 46  1  0  0  0
 27 28  1  0  0  0
 27 47  1  0  0  0
 28 29  1  0  0  0
 29 30  2  0  0  0
 29 31  1  0  0  0
 30 32  1  0  0  0
 31 33  2  0  0  0
 31 48  1  0  0  0
 32 33  1  0  0  0
 33 34  1  0  0  0
 34 35  1  0  0  0
 34 49  1  0  0  0
 34 50  1  0  0  0
 35 51  1  0  0  0
M  CHG  1  25  -1
M  END
> <i_epik_Tot_Q>
-1

> <i_epik_Tot_abs_Q>
1

> <i_lp_mmshare_version>
62121

> <i_m_Source_File_Index>
80

> <i_phase_Input_Structure_Number>
100

> <i_phase_Reference_Structure>
97

> <i_phase_Structure_Number>
100

> <Molecule Name>
133

> <Rotatable Bonds>
7

> <i_f3d_flags>
0

> <b_lp_Chiralities_Consistent>
1

> <r_canvas_IC50_human_P2Y14R,_nM>
7400

> <r_canvas_pIC50>
5.13076828026902

> <r_epik_Charging_Adjusted_Penalty>
0.000800868384284393

> <r_epik_Ionization_Penalty>
  0.0005

> <r_epik_Ionization_Penalty_Charging>
  0.0004

> <r_epik_Ionization_Penalty_Neutral>
  0.0001

> <r_epik_State_Penalty>
  0.0004

> <r_lp_Energy>
53.372352

> <r_phase_Similarity_to_Reference>
0.762736441800044

> <s_canvas_CHEMBLID>
CHEMBL4216870

> <s_canvas_Compound>
33

> <s_canvas_Paper>
Jung2021

> <s_epik_cmdline>
J2VwaWtfcHl0aG9uJywgJy1waCcsICc3LjAnLCAnLXRuJywgJzgnLCAnLW1hJywgJzUwMCcsICctaW1hZScsICc8aW5maWxlLm1hZT4nLCAnLW9tYWUnLCAnPG91dGZpbGUubWFlPic=

> <s_epik_input>
RkMoRikoRiljMVtjSF1bY0hdYyhbY0hdW2NIXTEpQyg9TylbTkhdYzJbY0hdYyhbY0hdYyhbY0hdMilDKD1PKVtPSF0pLWMzW2NIXVtjSF1jKFtjSF1bY0hdMyktYzRub2MoW2NIXTQpW0NIMl1bT0hd

> <s_lp_Force_Field>
S-OPLS

> <s_lp_Variant>
133-1

> <s_m_Source_File>
database-aligned.sdf

> <s_m_Source_Path>
/data/matteo/P2Y14-antagonists-piperidineDerivatives-Wen2023/14052024-optimized-alignment

> <s_m_entry_id>
80

> <s_m_entry_name>
database-aligned.80

> <s_m_job_name>
align_ligands_1

> <s_phase_Alignment_Method>
snapped core

> <s_phase_Alignment_Reason>


> <s_phase_Core_SMARTS>
a1aaaa1-a2aaa(aa2)-a3aaaaa3

$$$$
134
                    3D
 Schrodinger Suite 2023-2.
 58 62  0  0  1  0            999 V2000
   -4.8466   -3.4241    1.6134 F   0  0  0  0  0  0
   -5.0120   -2.1173    1.8111 C   0  0  0  0  0  0
   -5.9312   -1.6407    0.9732 F   0  0  0  0  0  0
   -5.3787   -1.8881    3.0709 F   0  0  0  0  0  0
   -3.7102   -1.4192    1.5505 C   0  0  0  0  0  0
   -3.7049   -0.1126    1.0769 C   0  0  0  0  0  0
   -2.5092   -2.0790    1.7828 C   0  0  0  0  0  0
   -2.4987    0.5343    0.8355 C   0  0  0  0  0  0
   -1.3030   -1.4321    1.5414 C   0  0  0  0  0  0
   -1.2977   -0.1255    1.0677 C   0  0  0  0  0  0
    0.0041    0.5726    0.8072 C   0  0  0  0  0  0
    0.0745    1.8131    0.3572 N   0  0  0  0  0  0
    1.2788    0.0570    0.9868 C   0  0  0  0  0  0
    1.4087    2.1505    0.2272 N   0  0  0  0  0  0
    2.1133    1.0787    0.6116 N   0  0  0  0  0  0
    3.5729    1.0430    0.6162 C   0  0  0  0  0  0
    4.3095    2.0826    1.2307 N   0  0  0  0  0  0
    4.2688   -0.0378   -0.0014 C   0  0  0  0  0  0
    5.7140    2.0823    1.2549 C   0  0  0  0  0  0
    5.6959   -0.0428    0.0147 C   0  0  0  0  0  0
    6.4824    3.1926    1.9177 C   0  0  0  0  0  0
    6.3738    1.0063    0.6388 C   0  0  0  0  0  0
    6.4845   -1.1328   -0.6109 C   0  0  0  0  0  0
    7.7329    3.1460    1.9172 O   0  0  0  0  0  0
    5.8483    4.1301    2.4513 O   0  5  0  0  0  0
    6.8196   -1.0713   -1.9653 C   0  0  0  0  0  0
    6.8885   -2.2318    0.1496 C   0  0  0  0  0  0
    7.5469   -2.1010   -2.5562 C   0  0  0  0  0  0
    7.6134   -3.2639   -0.4389 C   0  0  0  0  0  0
    7.9469   -3.2050   -1.7964 C   0  0  0  0  0  0
    8.7323   -4.3448   -2.4511 C   0  0  0  0  0  0
   10.1198   -4.5548   -1.7988 C   0  0  0  0  0  0
    7.9157   -5.6578   -2.4890 C   0  0  0  0  0  0
   10.9018   -5.7110   -2.4500 C   0  0  0  0  0  0
    8.6977   -6.8138   -3.1399 C   0  0  0  0  0  0
   10.0472   -6.9906   -2.4217 N   0  3  0  0  0  0
   -4.6329    0.4100    0.8977 H   0  0  0  0  0  0
   -2.5030   -3.0928    2.1550 H   0  0  0  0  0  0
   -2.5154    1.5501    0.4687 H   0  0  0  0  0  0
   -0.3800   -1.9598    1.7285 H   0  0  0  0  0  0
    1.6409   -0.8992    1.3331 H   0  0  0  0  0  0
    3.7250   -0.8397   -0.4787 H   0  0  0  0  0  0
    7.4543    0.9845    0.6428 H   0  0  0  0  0  0
    6.5109   -0.2236   -2.5598 H   0  0  0  0  0  0
    6.6328   -2.2863    1.1979 H   0  0  0  0  0  0
    7.7942   -2.0394   -3.6059 H   0  0  0  0  0  0
    7.9105   -4.1101    0.1626 H   0  0  0  0  0  0
    8.9140   -4.0563   -3.4878 H   0  0  0  0  0  0
   10.7038   -3.6358   -1.8640 H   0  0  0  0  0  0
   10.0030   -4.7687   -0.7359 H   0  0  0  0  0  0
    7.6374   -5.9487   -1.4752 H   0  0  0  0  0  0
    6.9816   -5.4990   -3.0295 H   0  0  0  0  0  0
   11.1523   -5.4689   -3.4836 H   0  0  0  0  0  0
   11.8388   -5.8878   -1.9211 H   0  0  0  0  0  0
    8.1304   -7.7431   -3.0816 H   0  0  0  0  0  0
    8.8768   -6.6076   -4.1959 H   0  0  0  0  0  0
   10.5606   -7.7388   -2.8660 H   0  0  0  0  0  0
    9.8714   -7.2415   -1.4591 H   0  0  0  0  0  0
  1  2  1  0  0  0
  2  3  1  0  0  0
  2  4  1  0  0  0
  2  5  1  0  0  0
  5  6  2  0  0  0
  5  7  1  0  0  0
  6  8  1  0  0  0
  6 37  1  0  0  0
  7  9  2  0  0  0
  7 38  1  0  0  0
  8 10  2  0  0  0
  8 39  1  0  0  0
  9 10  1  0  0  0
  9 40  1  0  0  0
 10 11  1  0  0  0
 11 12  1  0  0  0
 11 13  2  0  0  0
 12 14  2  0  0  0
 13 15  1  0  0  0
 13 41  1  0  0  0
 14 15  1  0  0  0
 15 16  1  0  0  0
 16 17  2  0  0  0
 16 18  1  0  0  0
 17 19  1  0  0  0
 18 20  2  0  0  0
 18 42  1  0  0  0
 19 21  1  0  0  0
 19 22  2  0  0  0
 20 23  1  0  0  0
 20 22  1  0  0  0
 21 24  2  0  0  0
 21 25  1  0  0  0
 22 43  1  0  0  0
 23 26  2  0  0  0
 23 27  1  0  0  0
 26 28  1  0  0  0
 26 44  1  0  0  0
 27 29  2  0  0  0
 27 45  1  0  0  0
 28 30  2  0  0  0
 28 46  1  0  0  0
 29 30  1  0  0  0
 29 47  1  0  0  0
 30 31  1  0  0  0
 31 32  1  0  0  0
 31 33  1  0  0  0
 31 48  1  0  0  0
 32 34  1  0  0  0
 32 49  1  0  0  0
 32 50  1  0  0  0
 33 35  1  0  0  0
 33 51  1  0  0  0
 33 52  1  0  0  0
 34 36  1  0  0  0
 34 53  1  0  0  0
 34 54  1  0  0  0
 35 36  1  0  0  0
 35 55  1  0  0  0
 35 56  1  0  0  0
 36 57  1  0  0  0
 36 58  1  0  0  0
M  CHG  2  25  -1  36   1
M  END
> <i_epik_Tot_Q>
0

> <i_epik_Tot_abs_Q>
2

> <i_lp_mmshare_version>
62121

> <i_m_Source_File_Index>
81

> <i_phase_Input_Structure_Number>
101

> <i_phase_Reference_Structure>
41

> <i_phase_Structure_Number>
101

> <Molecule Name>
134

> <Rotatable Bonds>
6

> <i_f3d_flags>
0

> <b_lp_Chiralities_Consistent>
1

> <r_canvas_IC50_human_P2Y14R,_nM>
1690

> <r_canvas_pIC50>
5.77211329538633

> <r_epik_Charging_Adjusted_Penalty>
0.00116735126996253

> <r_epik_Ionization_Penalty>
  0.0006

> <r_epik_Ionization_Penalty_Charging>
  0.0006

> <r_epik_Ionization_Penalty_Neutral>
  0.0000

> <r_epik_State_Penalty>
  0.0006

> <r_lp_Energy>
59.15243

> <r_lp_tautomer_probability>
1

> <r_phase_Similarity_to_Reference>
0.903639199528224

> <s_canvas_CHEMBLID>
CHEMBL4216870

> <s_canvas_Compound>
34

> <s_canvas_Paper>
Jung2021

> <s_epik_cmdline>
J2VwaWtfcHl0aG9uJywgJy1waCcsICc3LjAnLCAnLXRuJywgJzgnLCAnLW1hJywgJzUwMCcsICctaW1hZScsICc8aW5maWxlLm1hZT4nLCAnLW9tYWUnLCAnPG91dGZpbGUubWFlPic=

> <s_epik_input>
RkMoRikoRiljMVtjSF1bY0hdYyhbY0hdW2NIXTEpLWMybm5uKFtjSF0yKS1jM25jKEMoPU8pW09IXSlbY0hdYyhbY0hdMyktYzRbY0hdW2NIXWMoW2NIXVtjSF00KVtDSF01W0NIMl1bQ0gyXVtOSF1bQ0gyXVtDSDJdNQ==

> <s_lp_Force_Field>
S-OPLS

> <s_lp_Variant>
134-1

> <s_m_Source_File>
database-aligned.sdf

> <s_m_Source_Path>
/data/matteo/P2Y14-antagonists-piperidineDerivatives-Wen2023/14052024-optimized-alignment

> <s_m_entry_id>
81

> <s_m_entry_name>
database-aligned.81

> <s_m_job_name>
align_ligands_1

> <s_phase_Alignment_Method>
snapped core

> <s_phase_Alignment_Reason>


> <s_phase_Core_SMARTS>
a1aaaaa1-a2aa(aa2)-a3aaaa(a3)-a4aaa(aa4)A5AA[A]AA5

$$$$
135
                    3D
 Schrodinger Suite 2023-2.
 58 62  0  0  1  0            999 V2000
   -4.8466   -3.4241    1.6134 F   0  0  0  0  0  0
   -5.0120   -2.1173    1.8111 C   0  0  0  0  0  0
   -5.9312   -1.6407    0.9732 F   0  0  0  0  0  0
   -5.3787   -1.8881    3.0709 F   0  0  0  0  0  0
   -3.7102   -1.4192    1.5505 C   0  0  0  0  0  0
   -3.7049   -0.1126    1.0769 C   0  0  0  0  0  0
   -2.5092   -2.0790    1.7828 C   0  0  0  0  0  0
   -2.4987    0.5343    0.8355 C   0  0  0  0  0  0
   -1.3030   -1.4321    1.5414 C   0  0  0  0  0  0
   -1.2977   -0.1255    1.0677 C   0  0  0  0  0  0
    0.0041    0.5726    0.8072 C   0  0  0  0  0  0
    0.0745    1.8131    0.3572 N   0  0  0  0  0  0
    1.2788    0.0570    0.9868 C   0  0  0  0  0  0
    1.4087    2.1505    0.2272 N   0  0  0  0  0  0
    2.1133    1.0787    0.6116 N   0  0  0  0  0  0
    3.5729    1.0430    0.6162 C   0  0  0  0  0  0
    4.2688   -0.0378   -0.0014 C   0  0  0  0  0  0
    4.3095    2.0826    1.2307 C   0  0  0  0  0  0
    5.6959   -0.0428    0.0147 C   0  0  0  0  0  0
    5.7140    2.0823    1.2549 C   0  0  0  0  0  0
    6.3738    1.0063    0.6388 N   0  0  0  0  0  0
    6.4845   -1.1328   -0.6109 C   0  0  0  0  0  0
    6.4824    3.1926    1.9177 C   0  0  0  0  0  0
    6.8196   -1.0713   -1.9653 C   0  0  0  0  0  0
    6.8885   -2.2318    0.1496 C   0  0  0  0  0  0
    7.7329    3.1460    1.9172 O   0  0  0  0  0  0
    5.8483    4.1301    2.4513 O   0  5  0  0  0  0
    7.5469   -2.1010   -2.5562 C   0  0  0  0  0  0
    7.6134   -3.2639   -0.4389 C   0  0  0  0  0  0
    7.9469   -3.2050   -1.7964 C   0  0  0  0  0  0
    8.7323   -4.3448   -2.4511 C   0  0  0  0  0  0
    7.9157   -5.6578   -2.4890 C   0  0  0  0  0  0
   10.1198   -4.5548   -1.7988 C   0  0  0  0  0  0
    8.6977   -6.8138   -3.1399 C   0  0  0  0  0  0
   10.9018   -5.7110   -2.4500 C   0  0  0  0  0  0
   10.0472   -6.9906   -2.4217 N   0  3  0  0  0  0
   -4.6329    0.4100    0.8976 H   0  0  0  0  0  0
   -2.5030   -3.0928    2.1550 H   0  0  0  0  0  0
   -2.5157    1.5500    0.4685 H   0  0  0  0  0  0
   -0.3800   -1.9599    1.7285 H   0  0  0  0  0  0
    1.6405   -0.8996    1.3328 H   0  0  0  0  0  0
    3.7257   -0.8400   -0.4789 H   0  0  0  0  0  0
    3.7709    2.8956    1.6960 H   0  0  0  0  0  0
    6.5110   -0.2233   -2.5594 H   0  0  0  0  0  0
    6.6329   -2.2857    1.1979 H   0  0  0  0  0  0
    7.7942   -2.0394   -3.6059 H   0  0  0  0  0  0
    7.9104   -4.1101    0.1626 H   0  0  0  0  0  0
    8.9140   -4.0562   -3.4878 H   0  0  0  0  0  0
    7.6375   -5.9486   -1.4752 H   0  0  0  0  0  0
    6.9815   -5.4990   -3.0294 H   0  0  0  0  0  0
   10.7037   -3.6357   -1.8638 H   0  0  0  0  0  0
   10.0029   -4.7687   -0.7359 H   0  0  0  0  0  0
    8.1304   -7.7431   -3.0816 H   0  0  0  0  0  0
    8.8768   -6.6077   -4.1959 H   0  0  0  0  0  0
   11.1524   -5.4689   -3.4836 H   0  0  0  0  0  0
   11.8388   -5.8878   -1.9211 H   0  0  0  0  0  0
    9.8716   -7.2417   -1.4591 H   0  0  0  0  0  0
   10.5606   -7.7387   -2.8661 H   0  0  0  0  0  0
  1  2  1  0  0  0
  2  3  1  0  0  0
  2  4  1  0  0  0
  2  5  1  0  0  0
  5  6  2  0  0  0
  5  7  1  0  0  0
  6  8  1  0  0  0
  6 37  1  0  0  0
  7  9  2  0  0  0
  7 38  1  0  0  0
  8 10  2  0  0  0
  8 39  1  0  0  0
  9 10  1  0  0  0
  9 40  1  0  0  0
 10 11  1  0  0  0
 11 12  1  0  0  0
 11 13  2  0  0  0
 12 14  2  0  0  0
 13 15  1  0  0  0
 13 41  1  0  0  0
 14 15  1  0  0  0
 15 16  1  0  0  0
 16 17  2  0  0  0
 16 18  1  0  0  0
 17 19  1  0  0  0
 17 42  1  0  0  0
 18 20  2  0  0  0
 18 43  1  0  0  0
 19 21  2  0  0  0
 19 22  1  0  0  0
 20 23  1  0  0  0
 20 21  1  0  0  0
 22 24  2  0  0  0
 22 25  1  0  0  0
 23 26  2  0  0  0
 23 27  1  0  0  0
 24 28  1  0  0  0
 24 44  1  0  0  0
 25 29  2  0  0  0
 25 45  1  0  0  0
 28 30  2  0  0  0
 28 46  1  0  0  0
 29 30  1  0  0  0
 29 47  1  0  0  0
 30 31  1  0  0  0
 31 32  1  0  0  0
 31 33  1  0  0  0
 31 48  1  0  0  0
 32 34  1  0  0  0
 32 49  1  0  0  0
 32 50  1  0  0  0
 33 35  1  0  0  0
 33 51  1  0  0  0
 33 52  1  0  0  0
 34 36  1  0  0  0
 34 53  1  0  0  0
 34 54  1  0  0  0
 35 36  1  0  0  0
 35 55  1  0  0  0
 35 56  1  0  0  0
 36 57  1  0  0  0
 36 58  1  0  0  0
M  CHG  2  27  -1  36   1
M  END
> <i_epik_Tot_Q>
0

> <i_epik_Tot_abs_Q>
2

> <i_lp_mmshare_version>
62121

> <i_m_Source_File_Index>
82

> <i_phase_Input_Structure_Number>
102

> <i_phase_Reference_Structure>
41

> <i_phase_Structure_Number>
102

> <Molecule Name>
135

> <Rotatable Bonds>
6

> <i_f3d_flags>
0

> <b_lp_Chiralities_Consistent>
1

> <r_canvas_IC50_human_P2Y14R,_nM>
4900

> <r_canvas_pIC50>
5.30980391997149

> <r_epik_Charging_Adjusted_Penalty>
0.00116735126996253

> <r_epik_Ionization_Penalty>
  0.0006

> <r_epik_Ionization_Penalty_Charging>
  0.0006

> <r_epik_Ionization_Penalty_Neutral>
  0.0000

> <r_epik_State_Penalty>
  0.0006

> <r_lp_Energy>
60.073392

> <r_lp_tautomer_probability>
1

> <r_phase_Similarity_to_Reference>
0.901235504042686

> <s_canvas_CHEMBLID>
CHEMBL4214191

> <s_canvas_Compound>
35

> <s_canvas_Paper>
Jung2021

> <s_epik_cmdline>
J2VwaWtfcHl0aG9uJywgJy1waCcsICc3LjAnLCAnLXRuJywgJzgnLCAnLW1hJywgJzUwMCcsICctaW1hZScsICc8aW5maWxlLm1hZT4nLCAnLW9tYWUnLCAnPG91dGZpbGUubWFlPic=

> <s_epik_input>
RkMoRikoRiljMVtjSF1bY0hdYyhbY0hdW2NIXTEpLWMybm5uKFtjSF0yKS1jM1tjSF1jKG5jKFtjSF0zKUMoPU8pW09IXSktYzRbY0hdW2NIXWMoW2NIXVtjSF00KVtDSF01W0NIMl1bQ0gyXVtOSF1bQ0gyXVtDSDJdNQ==

> <s_lp_Force_Field>
S-OPLS

> <s_lp_Variant>
135-1

> <s_m_Source_File>
database-aligned.sdf

> <s_m_Source_Path>
/data/matteo/P2Y14-antagonists-piperidineDerivatives-Wen2023/14052024-optimized-alignment

> <s_m_entry_id>
82

> <s_m_entry_name>
database-aligned.82

> <s_m_job_name>
align_ligands_1

> <s_phase_Alignment_Method>
snapped core

> <s_phase_Alignment_Reason>


> <s_phase_Core_SMARTS>
a1aaaaa1-a2aa(aa2)-a3aaaa(a3)-a4aaa(aa4)A5AA[A]AA5

$$$$
136
                    3D
 Schrodinger Suite 2023-2.
 58 62  0  0  1  0            999 V2000
   -4.8466   -3.4241    1.6134 F   0  0  0  0  0  0
   -5.0120   -2.1173    1.8111 C   0  0  0  0  0  0
   -5.9312   -1.6407    0.9732 F   0  0  0  0  0  0
   -5.3787   -1.8881    3.0709 F   0  0  0  0  0  0
   -3.7102   -1.4192    1.5505 C   0  0  0  0  0  0
   -3.7049   -0.1126    1.0769 C   0  0  0  0  0  0
   -2.5092   -2.0790    1.7828 C   0  0  0  0  0  0
   -2.4987    0.5343    0.8355 C   0  0  0  0  0  0
   -1.3030   -1.4321    1.5414 C   0  0  0  0  0  0
   -1.2977   -0.1255    1.0677 C   0  0  0  0  0  0
    0.0041    0.5726    0.8072 C   0  0  0  0  0  0
    0.0745    1.8131    0.3572 N   0  0  0  0  0  0
    1.2788    0.0570    0.9868 C   0  0  0  0  0  0
    1.4087    2.1505    0.2272 N   0  0  0  0  0  0
    2.1133    1.0787    0.6116 N   0  0  0  0  0  0
    3.5729    1.0430    0.6162 C   0  0  0  0  0  0
    4.2688   -0.0378   -0.0014 N   0  0  0  0  0  0
    4.3095    2.0826    1.2307 C   0  0  0  0  0  0
    5.6959   -0.0428    0.0147 C   0  0  0  0  0  0
    5.7140    2.0823    1.2549 C   0  0  0  0  0  0
    6.4845   -1.1328   -0.6109 C   0  0  0  0  0  0
    6.3738    1.0063    0.6388 C   0  0  0  0  0  0
    6.4824    3.1926    1.9177 C   0  0  0  0  0  0
    6.8196   -1.0713   -1.9653 C   0  0  0  0  0  0
    6.8885   -2.2318    0.1496 C   0  0  0  0  0  0
    7.7329    3.1460    1.9172 O   0  0  0  0  0  0
    5.8483    4.1301    2.4513 O   0  5  0  0  0  0
    7.5469   -2.1010   -2.5562 C   0  0  0  0  0  0
    7.6134   -3.2639   -0.4389 C   0  0  0  0  0  0
    7.9469   -3.2050   -1.7964 C   0  0  0  0  0  0
    8.7323   -4.3448   -2.4511 C   0  0  0  0  0  0
   10.1198   -4.5548   -1.7988 C   0  0  0  0  0  0
    7.9157   -5.6578   -2.4890 C   0  0  0  0  0  0
   10.9018   -5.7110   -2.4500 C   0  0  0  0  0  0
    8.6977   -6.8138   -3.1399 C   0  0  0  0  0  0
   10.0472   -6.9906   -2.4217 N   0  3  0  0  0  0
   -4.6329    0.4100    0.8974 H   0  0  0  0  0  0
   -2.5029   -3.0929    2.1548 H   0  0  0  0  0  0
   -2.5155    1.5501    0.4687 H   0  0  0  0  0  0
   -0.3798   -1.9598    1.7283 H   0  0  0  0  0  0
    1.6427   -0.8997    1.3309 H   0  0  0  0  0  0
    3.7669    2.8937    1.6948 H   0  0  0  0  0  0
    7.4542    0.9801    0.6403 H   0  0  0  0  0  0
    6.5106   -0.2235   -2.5595 H   0  0  0  0  0  0
    6.6325   -2.2860    1.1978 H   0  0  0  0  0  0
    7.7944   -2.0392   -3.6058 H   0  0  0  0  0  0
    7.9106   -4.1100    0.1627 H   0  0  0  0  0  0
    8.9139   -4.0563   -3.4877 H   0  0  0  0  0  0
   10.7036   -3.6360   -1.8639 H   0  0  0  0  0  0
   10.0029   -4.7687   -0.7360 H   0  0  0  0  0  0
    7.6376   -5.9485   -1.4752 H   0  0  0  0  0  0
    6.9818   -5.4990   -3.0293 H   0  0  0  0  0  0
   11.1522   -5.4690   -3.4835 H   0  0  0  0  0  0
   11.8385   -5.8879   -1.9212 H   0  0  0  0  0  0
    8.1305   -7.7429   -3.0815 H   0  0  0  0  0  0
    8.8768   -6.6076   -4.1957 H   0  0  0  0  0  0
   10.5604   -7.7384   -2.8662 H   0  0  0  0  0  0
    9.8714   -7.2415   -1.4592 H   0  0  0  0  0  0
  1  2  1  0  0  0
  2  3  1  0  0  0
  2  4  1  0  0  0
  2  5  1  0  0  0
  5  6  2  0  0  0
  5  7  1  0  0  0
  6  8  1  0  0  0
  6 37  1  0  0  0
  7  9  2  0  0  0
  7 38  1  0  0  0
  8 10  2  0  0  0
  8 39  1  0  0  0
  9 10  1  0  0  0
  9 40  1  0  0  0
 10 11  1  0  0  0
 11 12  1  0  0  0
 11 13  2  0  0  0
 12 14  2  0  0  0
 13 15  1  0  0  0
 13 41  1  0  0  0
 14 15  1  0  0  0
 15 16  1  0  0  0
 16 17  2  0  0  0
 16 18  1  0  0  0
 17 19  1  0  0  0
 18 20  2  0  0  0
 18 42  1  0  0  0
 19 21  1  0  0  0
 19 22  2  0  0  0
 20 23  1  0  0  0
 20 22  1  0  0  0
 21 24  2  0  0  0
 21 25  1  0  0  0
 22 43  1  0  0  0
 23 26  2  0  0  0
 23 27  1  0  0  0
 24 28  1  0  0  0
 24 44  1  0  0  0
 25 29  2  0  0  0
 25 45  1  0  0  0
 28 30  2  0  0  0
 28 46  1  0  0  0
 29 30  1  0  0  0
 29 47  1  0  0  0
 30 31  1  0  0  0
 31 32  1  0  0  0
 31 33  1  0  0  0
 31 48  1  0  0  0
 32 34  1  0  0  0
 32 49  1  0  0  0
 32 50  1  0  0  0
 33 35  1  0  0  0
 33 51  1  0  0  0
 33 52  1  0  0  0
 34 36  1  0  0  0
 34 53  1  0  0  0
 34 54  1  0  0  0
 35 36  1  0  0  0
 35 55  1  0  0  0
 35 56  1  0  0  0
 36 57  1  0  0  0
 36 58  1  0  0  0
M  CHG  2  27  -1  36   1
M  END
> <i_epik_Tot_Q>
0

> <i_epik_Tot_abs_Q>
2

> <i_lp_mmshare_version>
62121

> <i_m_Source_File_Index>
83

> <i_phase_Input_Structure_Number>
103

> <i_phase_Reference_Structure>
41

> <i_phase_Structure_Number>
103

> <Molecule Name>
136

> <Rotatable Bonds>
6

> <i_f3d_flags>
0

> <b_lp_Chiralities_Consistent>
1

> <r_canvas_IC50_human_P2Y14R,_nM>
2920

> <r_canvas_pIC50>
5.53461714855158

> <r_epik_Charging_Adjusted_Penalty>
0.000916343313286667

> <r_epik_Ionization_Penalty>
  0.0009

> <r_epik_Ionization_Penalty_Charging>
  0.0009

> <r_epik_Ionization_Penalty_Neutral>
  0.0000

> <r_epik_State_Penalty>
  0.0000

> <r_lp_Energy>
58.455885

> <r_lp_tautomer_probability>
1

> <r_phase_Similarity_to_Reference>
0.903472177531061

> <s_canvas_CHEMBLID>
CHEMBL4214132

> <s_canvas_Compound>
36

> <s_canvas_Paper>
Jung2021

> <s_epik_cmdline>
J2VwaWtfcHl0aG9uJywgJy1waCcsICc3LjAnLCAnLXRuJywgJzgnLCAnLW1hJywgJzUwMCcsICctaW1hZScsICc8aW5maWxlLm1hZT4nLCAnLW9tYWUnLCAnPG91dGZpbGUubWFlPic=

> <s_epik_input>
RkMoRikoRiljMVtjSF1bY0hdYyhbY0hdW2NIXTEpLWMybm5uKFtjSF0yKS1jM25jKFtjSF1jKFtjSF0zKUMoPU8pW09IXSktYzRbY0hdW2NIXWMoW2NIXVtjSF00KVtDSF01W0NIMl1bQ0gyXVtOSF1bQ0gyXVtDSDJdNQ==

> <s_lp_Force_Field>
S-OPLS

> <s_lp_Variant>
136-1

> <s_m_Source_File>
database-aligned.sdf

> <s_m_Source_Path>
/data/matteo/P2Y14-antagonists-piperidineDerivatives-Wen2023/14052024-optimized-alignment

> <s_m_entry_id>
83

> <s_m_entry_name>
database-aligned.83

> <s_m_job_name>
align_ligands_1

> <s_phase_Alignment_Method>
snapped core

> <s_phase_Alignment_Reason>


> <s_phase_Core_SMARTS>
a1aaaaa1-a2aa(aa2)-a3aaaa(a3)-a4aaa(aa4)A5AA[A]AA5

$$$$
141
                    3D
 Schrodinger Suite 2023-2.
 62 66  0  0  1  0            999 V2000
   -5.0261    1.4324    0.2838 F   0  0  0  0  0  0
   -4.4843    0.5364    1.1094 C   0  0  0  0  0  0
   -4.7261    0.9091    2.3654 F   0  0  0  0  0  0
   -5.0718   -0.6406    0.8904 F   0  0  0  0  0  0
   -2.9805    0.4435    0.8954 C   0  0  0  0  0  0
   -2.2992   -0.7723    1.1122 C   0  0  0  0  0  0
   -2.2454    1.5776    0.4941 C   0  0  0  0  0  0
   -0.9062   -0.8510    0.9207 C   0  0  0  0  0  0
   -0.8521    1.4946    0.3065 C   0  0  0  0  0  0
   -0.1610    0.2796    0.5158 C   0  0  0  0  0  0
    1.3001    0.1930    0.3226 C   0  0  0  0  0  0
    2.1524    1.2383    0.7416 C   0  0  0  0  0  0
    1.8847   -0.9390   -0.2850 C   0  0  0  0  0  0
    3.5501    1.1548    0.5712 C   0  0  0  0  0  0
    3.2777   -1.0307   -0.4622 C   0  0  0  0  0  0
    4.1320    0.0089   -0.0274 C   0  0  0  0  0  0
    4.3632    2.2211    1.0016 C   0  0  0  0  0  0
    5.5422   -0.0679   -0.1843 C   0  0  0  0  0  0
    5.7637    2.1649    0.8405 C   0  0  0  0  0  0
    6.2189   -1.2368   -0.7759 C   0  0  0  0  0  0
    6.3353    1.0178    0.2468 C   0  0  0  0  0  0
    6.6335    3.3065    1.2938 C   0  0  0  0  0  0
    6.9102   -1.1235   -1.9992 C   0  0  0  0  0  0
    6.1956   -2.4906   -0.1313 C   0  0  0  0  0  0
    7.8718    3.2234    1.1339 O   0  0  0  0  0  0
    6.0939    4.3069    1.8173 O   0  5  0  0  0  0
    7.5479   -2.2386   -2.5763 C   0  0  0  0  0  0
    6.8300   -3.6077   -0.7058 C   0  0  0  0  0  0
    7.5223   -3.4998   -1.9335 C   0  0  0  0  0  0
    8.1668   -4.7603   -2.5405 C   0  0  2  0  0  0
    9.1681   -5.4314   -1.5741 C   0  0  0  0  0  0
    9.1677   -4.5137   -3.6951 C   0  0  0  0  0  0
    9.5748   -6.8461   -2.0682 C   0  0  1  0  0  0
    9.5605   -5.8453   -4.3903 C   0  0  0  0  0  0
   10.1128   -6.8814   -3.4645 N   0  3  0  0  0  0
   10.5597   -7.5271   -1.1097 C   0  0  0  0  0  0
   -2.8413   -1.6507    1.4302 H   0  0  0  0  0  0
   -2.7466    2.5200    0.3298 H   0  0  0  0  0  0
   -0.4077   -1.7925    1.0993 H   0  0  0  0  0  0
   -0.3136    2.3771   -0.0067 H   0  0  0  0  0  0
    1.7301    2.1152    1.2108 H   0  0  0  0  0  0
    1.2614   -1.7510   -0.6294 H   0  0  0  0  0  0
    3.6723   -1.9140   -0.9405 H   0  0  0  0  0  0
    3.9027    3.0874    1.4551 H   0  0  0  0  0  0
    7.4070    0.9556    0.1217 H   0  0  0  0  0  0
    6.9439   -0.1712   -2.5087 H   0  0  0  0  0  0
    5.6728   -2.6011    0.8078 H   0  0  0  0  0  0
    8.0533   -2.0964   -3.5180 H   0  0  0  0  0  0
    6.7650   -4.5573   -0.1963 H   0  0  0  0  0  0
    7.3704   -5.4441   -2.8381 H   0  0  0  0  0  0
   10.0439   -4.8091   -1.3794 H   0  0  0  0  0  0
    8.7021   -5.5667   -0.5988 H   0  0  0  0  0  0
    8.6879   -3.9131   -4.4671 H   0  0  0  0  0  0
   10.0479   -3.9460   -3.3873 H   0  0  0  0  0  0
    8.6650   -7.4478   -2.0901 H   0  0  0  0  0  0
    8.6724   -6.2704   -4.8594 H   0  0  0  0  0  0
   10.2769   -5.6660   -5.1923 H   0  0  0  0  0  0
   11.1022   -6.6922   -3.3897 H   0  0  0  0  0  0
   10.1547   -7.5765   -0.0985 H   0  0  0  0  0  0
   11.5048   -6.9850   -1.0634 H   0  0  0  0  0  0
   10.7757   -8.5482   -1.4260 H   0  0  0  0  0  0
    9.9961   -7.8031   -3.8612 H   0  0  0  0  0  0
  1  2  1  0  0  0
  2  3  1  0  0  0
  2  4  1  0  0  0
  2  5  1  0  0  0
  5  6  2  0  0  0
  5  7  1  0  0  0
  6  8  1  0  0  0
  6 37  1  0  0  0
  7  9  2  0  0  0
  7 38  1  0  0  0
  8 10  2  0  0  0
  8 39  1  0  0  0
  9 10  1  0  0  0
  9 40  1  0  0  0
 10 11  1  0  0  0
 11 12  2  0  0  0
 11 13  1  0  0  0
 12 14  1  0  0  0
 12 41  1  0  0  0
 13 15  2  0  0  0
 13 42  1  0  0  0
 14 16  1  0  0  0
 14 17  2  0  0  0
 15 16  1  0  0  0
 15 43  1  0  0  0
 16 18  2  0  0  0
 17 19  1  0  0  0
 17 44  1  0  0  0
 18 20  1  0  0  0
 18 21  1  0  0  0
 19 22  1  0  0  0
 19 21  2  0  0  0
 20 23  2  0  0  0
 20 24  1  0  0  0
 21 45  1  0  0  0
 22 25  2  0  0  0
 22 26  1  0  0  0
 23 27  1  0  0  0
 23 46  1  0  0  0
 24 28  2  0  0  0
 24 47  1  0  0  0
 27 29  2  0  0  0
 27 48  1  0  0  0
 28 29  1  0  0  0
 28 49  1  0  0  0
 29 30  1  0  0  0
 30 31  1  0  0  0
 30 32  1  0  0  0
 30 50  1  0  0  0
 31 33  1  0  0  0
 31 51  1  0  0  0
 31 52  1  0  0  0
 32 34  1  0  0  0
 32 53  1  0  0  0
 32 54  1  0  0  0
 33 35  1  0  0  0
 33 36  1  0  0  0
 33 55  1  0  0  0
 34 35  1  0  0  0
 34 56  1  0  0  0
 34 57  1  0  0  0
 35 58  1  0  0  0
 35 62  1  0  0  0
 36 59  1  0  0  0
 36 60  1  0  0  0
 36 61  1  0  0  0
M  CHG  2  26  -1  35   1
M  END
> <i_epik_Tot_Q>
0

> <i_epik_Tot_abs_Q>
2

> <i_lp_mmshare_version>
62121

> <i_m_Source_File_Index>
84

> <i_phase_Input_Structure_Number>
104

> <i_phase_Reference_Structure>
116

> <i_phase_Structure_Number>
104

> <Molecule Name>
141

> <Rotatable Bonds>
5

> <i_f3d_flags>
0

> <b_lp_Chiralities_Consistent>
1

> <r_canvas_IC50_human_P2Y14R,_nM>
17.8

> <r_canvas_pIC50>
7.74957999769111

> <r_epik_Charging_Adjusted_Penalty>
0.0012733390979885

> <r_epik_Ionization_Penalty>
  0.0013

> <r_epik_Ionization_Penalty_Charging>
  0.0013

> <r_epik_Ionization_Penalty_Neutral>
  0.0000

> <r_epik_State_Penalty>
  0.0000

> <r_lp_Energy>
65.181454

> <r_lp_tautomer_probability>
1

> <r_phase_Similarity_to_Reference>
0.780449214800562

> <s_canvas_CHEMBLID>
CHEMBL4213231

> <s_canvas_Compound>
8

> <s_canvas_Paper>
Wen2022

> <s_epik_cmdline>
J2VwaWtfcHl0aG9uJywgJy1waCcsICc3LjAnLCAnLXRuJywgJzgnLCAnLW1hJywgJzUwMCcsICctaW1hZScsICc8aW5maWxlLm1hZT4nLCAnLW9tYWUnLCAnPG91dGZpbGUubWFlPic=

> <s_epik_input>
RkMoRikoRiljMVtjSF1bY0hdYyhbY0hdW2NIXTEpLWMoW2NIXTIpW2NIXVtjSF1jKGMyMyljKFtjSF1jKFtjSF0zKUMoPU8pW09IXSktYzRbY0hdW2NIXWMoW2NIXVtjSF00KVtDQEBIXTVbQ0gyXVtDQEhdKFtDSDNdKVtOSF1bQ0gyXVtDSDJdNQ==

> <s_lp_Force_Field>
S-OPLS

> <s_lp_Variant>
141-1

> <s_m_Source_File>
database-aligned.sdf

> <s_m_Source_Path>
/data/matteo/P2Y14-antagonists-piperidineDerivatives-Wen2023/14052024-optimized-alignment

> <s_m_entry_id>
84

> <s_m_entry_name>
database-aligned.84

> <s_m_job_name>
align_ligands_1

> <s_phase_Alignment_Method>
snapped core

> <s_phase_Alignment_Reason>


> <s_phase_Core_SMARTS>
a1aaaaa1-a(a2)aaa(a23)a(aaa3)-a4aaa(aa4)A5AA[A]AA5

$$$$
149
                    3D
 Schrodinger Suite 2023-2.
 60 65  0  0  1  0            999 V2000
   -5.0716   -0.4967    1.2474 F   0  0  0  0  0  0
   -4.4903    0.6715    0.9722 C   0  0  0  0  0  0
   -5.0250    1.1544   -0.1493 F   0  0  0  0  0  0
   -4.7463    1.5183    1.9689 F   0  0  0  0  0  0
   -2.9849    0.5322    0.8024 C   0  0  0  0  0  0
   -2.2219    1.6501    0.4097 C   0  0  0  0  0  0
   -2.3309   -0.6961    1.0349 C   0  0  0  0  0  0
   -0.8271    1.5412    0.2494 C   0  0  0  0  0  0
   -0.9360   -0.8001    0.8718 C   0  0  0  0  0  0
   -0.1617    0.3149    0.4767 C   0  0  0  0  0  0
    1.3011    0.1998    0.3062 C   0  0  0  0  0  0
    2.1655    1.2463    0.6976 C   0  0  0  0  0  0
    1.8756   -0.9604   -0.2567 C   0  0  0  0  0  0
    3.5630    1.1394    0.5387 C   0  0  0  0  0  0
    3.2686   -1.0782   -0.4173 C   0  0  0  0  0  0
    4.1333   -0.0343   -0.0152 C   0  0  0  0  0  0
    4.3872    2.2115    0.9329 C   0  0  0  0  0  0
    5.5426   -0.1342   -0.1628 C   0  0  0  0  0  0
    5.7873    2.1338    0.7765 C   0  0  0  0  0  0
    6.2095   -1.3329   -0.7035 C   0  0  0  0  0  0
    6.3469    0.9584    0.2285 C   0  0  0  0  0  0
    6.6692    3.2818    1.1884 C   0  0  0  0  0  0
    6.9138   -1.2731   -1.9244 C   0  0  0  0  0  0
    6.1756   -2.5579   -0.0034 C   0  0  0  0  0  0
    7.9057    3.1846    1.0219 O   0  0  0  0  0  0
    6.1410    4.3020    1.6846 O   0  5  0  0  0  0
    7.5577   -2.4128   -2.4439 C   0  0  0  0  0  0
    6.8150   -3.7004   -0.5203 C   0  0  0  0  0  0
    7.5098   -3.6411   -1.7460 C   0  0  0  0  0  0
    8.1857   -4.9093   -2.2639 C   0  0  1  0  0  0
    8.6662   -4.8985   -3.7368 C   0  0  2  0  0  0
    9.4880   -5.2656   -1.5107 C   0  0  0  0  0  0
    8.9199   -6.3573   -4.1647 C   0  0  0  0  0  0
   10.1045   -4.3978   -3.6352 C   0  0  0  0  0  0
   10.4923   -5.4979   -2.6566 C   0  0  2  0  0  0
   10.1178   -6.7324   -3.3807 N   0  3  0  0  0  0
   -2.7084    2.5975    0.2287 H   0  0  0  0  0  0
   -2.8904   -1.5673    1.3415 H   0  0  0  0  0  0
   -0.2681    2.4124   -0.0598 H   0  0  0  0  0  0
   -0.4595   -1.7506    1.0624 H   0  0  0  0  0  0
    1.7529    2.1448    1.1331 H   0  0  0  0  0  0
    1.2449   -1.7749   -0.5812 H   0  0  0  0  0  0
    3.6550   -1.9832   -0.8605 H   0  0  0  0  0  0
    3.9358    3.0993    1.3526 H   0  0  0  0  0  0
    7.4180    0.8792    0.1089 H   0  0  0  0  0  0
    6.9588   -0.3424   -2.4712 H   0  0  0  0  0  0
    5.6504   -2.6235    0.9384 H   0  0  0  0  0  0
    8.0840   -2.3208   -3.3814 H   0  0  0  0  0  0
    6.7715   -4.6277    0.0321 H   0  0  0  0  0  0
    7.4573   -5.7118   -2.1362 H   0  0  0  0  0  0
    8.0144   -4.3655   -4.4296 H   0  0  0  0  0  0
    9.8239   -4.4332   -0.8901 H   0  0  0  0  0  0
    9.3732   -6.1365   -0.8639 H   0  0  0  0  0  0
    8.0778   -7.0182   -3.9566 H   0  0  0  0  0  0
    9.1466   -6.4220   -5.2296 H   0  0  0  0  0  0
   10.6496   -4.4450   -4.5799 H   0  0  0  0  0  0
   10.1985   -3.3945   -3.2171 H   0  0  0  0  0  0
   11.5350   -5.4897   -2.3381 H   0  0  0  0  0  0
    9.9166   -7.4798   -2.7318 H   0  0  0  0  0  0
   10.8594   -7.0033   -4.0107 H   0  0  0  0  0  0
  1  2  1  0  0  0
  2  3  1  0  0  0
  2  4  1  0  0  0
  2  5  1  0  0  0
  5  6  2  0  0  0
  5  7  1  0  0  0
  6  8  1  0  0  0
  6 37  1  0  0  0
  7  9  2  0  0  0
  7 38  1  0  0  0
  8 10  2  0  0  0
  8 39  1  0  0  0
  9 10  1  0  0  0
  9 40  1  0  0  0
 10 11  1  0  0  0
 11 12  2  0  0  0
 11 13  1  0  0  0
 12 14  1  0  0  0
 12 41  1  0  0  0
 13 15  2  0  0  0
 13 42  1  0  0  0
 14 16  1  0  0  0
 14 17  2  0  0  0
 15 16  1  0  0  0
 15 43  1  0  0  0
 16 18  2  0  0  0
 17 19  1  0  0  0
 17 44  1  0  0  0
 18 20  1  0  0  0
 18 21  1  0  0  0
 19 22  1  0  0  0
 19 21  2  0  0  0
 20 23  2  0  0  0
 20 24  1  0  0  0
 21 45  1  0  0  0
 22 25  2  0  0  0
 22 26  1  0  0  0
 23 27  1  0  0  0
 23 46  1  0  0  0
 24 28  2  0  0  0
 24 47  1  0  0  0
 27 29  2  0  0  0
 27 48  1  0  0  0
 28 29  1  0  0  0
 28 49  1  0  0  0
 29 30  1  0  0  0
 30 31  1  0  0  0
 30 32  1  0  0  0
 30 50  1  0  0  0
 31 33  1  0  0  0
 31 34  1  0  0  0
 31 51  1  0  0  0
 32 35  1  0  0  0
 32 52  1  0  0  0
 32 53  1  0  0  0
 33 36  1  0  0  0
 33 54  1  0  0  0
 33 55  1  0  0  0
 34 35  1  0  0  0
 34 56  1  0  0  0
 34 57  1  0  0  0
 35 36  1  0  0  0
 35 58  1  0  0  0
 36 59  1  0  0  0
 36 60  1  0  0  0
M  CHG  2  26  -1  36   1
M  END
> <i_epik_Tot_Q>
0

> <i_epik_Tot_abs_Q>
2

> <i_lp_mmshare_version>
62121

> <i_m_Source_File_Index>
85

> <i_phase_Input_Structure_Number>
105

> <i_phase_Reference_Structure>
110

> <i_phase_Structure_Number>
105

> <Molecule Name>
149

> <Rotatable Bonds>
5

> <i_f3d_flags>
0

> <b_lp_Chiralities_Consistent>
1

> <r_canvas_IC50_human_P2Y14R,_nM>
8.62

> <r_canvas_pIC50>
8.06449273417529

> <r_epik_Charging_Adjusted_Penalty>
0.00149795190922281

> <r_epik_Ionization_Penalty>
  0.0008

> <r_epik_Ionization_Penalty_Charging>
  0.0008

> <r_epik_Ionization_Penalty_Neutral>
  0.0000

> <r_epik_State_Penalty>
  0.0007

> <r_lp_Energy>
85.789026

> <r_phase_Similarity_to_Reference>
0.961346752392864

> <s_canvas_CHEMBLID>
CHEMBL4207940

> <s_canvas_Compound>
16

> <s_canvas_Paper>
Wen2022

> <s_epik_cmdline>
J2VwaWtfcHl0aG9uJywgJy1waCcsICc3LjAnLCAnLXRuJywgJzgnLCAnLW1hJywgJzUwMCcsICctaW1hZScsICc8aW5maWxlLm1hZT4nLCAnLW9tYWUnLCAnPG91dGZpbGUubWFlPic=

> <s_epik_input>
RkMoRikoRiljMVtjSF1bY0hdYyhbY0hdW2NIXTEpLWMoW2NIXTIpW2NIXVtjSF1jKGMyMyljKFtjSF1jKFtjSF0zKUMoPU8pW09IXSktYzRbY0hdW2NIXWMoW2NIXVtjSF00KVtDQEBIXShbQ0BIXTU2KVtDSDJdW0NASF0oW0NIMl02KVtOSF1bQ0gyXTU=

> <s_lp_Force_Field>
S-OPLS

> <s_lp_Variant>
149-1

> <s_m_Source_File>
database-aligned.sdf

> <s_m_Source_Path>
/data/matteo/P2Y14-antagonists-piperidineDerivatives-Wen2023/14052024-optimized-alignment

> <s_m_entry_id>
85

> <s_m_entry_name>
database-aligned.85

> <s_m_job_name>
align_ligands_1

> <s_phase_Alignment_Method>
flexible least-squares core

> <s_phase_Alignment_Reason>
stereochemistry change

> <s_phase_Core_SMARTS>
A12[A]AA(A1)A(A2)a3aaa(aa3)-a(aaa4)a(a45)aaa(a5)-a6aaaaa6

$$$$
150
                    3D
 Schrodinger Suite 2023-2.
 60 65  0  0  1  0            999 V2000
   -5.1174   -0.4098    0.7558 F   0  0  0  0  0  0
   -4.4907    0.7374    1.0188 C   0  0  0  0  0  0
   -4.9864    1.6771    0.2130 F   0  0  0  0  0  0
   -4.7378    1.0815    2.2820 F   0  0  0  0  0  0
   -2.9884    0.5928    0.8246 C   0  0  0  0  0  0
   -2.2080    1.7008    0.4354 C   0  0  0  0  0  0
   -2.3529   -0.6455    1.0508 C   0  0  0  0  0  0
   -0.8162    1.5677    0.2673 C   0  0  0  0  0  0
   -0.9607   -0.7734    0.8811 C   0  0  0  0  0  0
   -0.1692    0.3299    0.4872 C   0  0  0  0  0  0
    1.2925    0.1956    0.3147 C   0  0  0  0  0  0
    2.1661    1.2415    0.6864 C   0  0  0  0  0  0
    1.8578   -0.9787   -0.2294 C   0  0  0  0  0  0
    3.5616    1.1236    0.5220 C   0  0  0  0  0  0
    3.2498   -1.1076   -0.3955 C   0  0  0  0  0  0
    4.1222   -0.0615   -0.0171 C   0  0  0  0  0  0
    4.3928    2.1977    0.8944 C   0  0  0  0  0  0
    5.5299   -0.1682   -0.1744 C   0  0  0  0  0  0
    5.7915    2.1108    0.7325 C   0  0  0  0  0  0
    6.1889   -1.3705   -0.7150 C   0  0  0  0  0  0
    6.3421    0.9247    0.1992 C   0  0  0  0  0  0
    6.6805    3.2615    1.1213 C   0  0  0  0  0  0
    6.8468   -1.3237   -1.9617 C   0  0  0  0  0  0
    6.1982   -2.5819    0.0082 C   0  0  0  0  0  0
    7.9188    3.1402    0.9894 O   0  0  0  0  0  0
    6.1561    4.3078    1.5644 O   0  5  0  0  0  0
    7.4957   -2.4607   -2.4798 C   0  0  0  0  0  0
    6.8449   -3.7218   -0.5063 C   0  0  0  0  0  0
    7.5015   -3.6738   -1.7540 C   0  0  0  0  0  0
    8.1959   -4.9374   -2.2623 C   0  0  1  0  0  0
    8.6887   -4.9217   -3.7332 C   0  0  2  0  0  0
    9.5073   -5.2301   -1.4941 C   0  0  0  0  0  0
    8.9592   -6.3203   -4.1366 N   0  3  0  0  0  0
   10.1004   -4.3479   -3.6204 C   0  0  0  0  0  0
   10.5325   -5.4177   -2.6277 C   0  0  2  0  0  0
   10.1935   -6.6953   -3.4134 C   0  0  0  0  0  0
   -2.6727    2.6607    0.2647 H   0  0  0  0  0  0
   -2.9299   -1.5042    1.3605 H   0  0  0  0  0  0
   -0.2453    2.4316   -0.0399 H   0  0  0  0  0  0
   -0.5005   -1.7326    1.0680 H   0  0  0  0  0  0
    1.7626    2.1500    1.1099 H   0  0  0  0  0  0
    1.2213   -1.7953   -0.5361 H   0  0  0  0  0  0
    3.6303   -2.0222   -0.8245 H   0  0  0  0  0  0
    3.9477    3.0941    1.3024 H   0  0  0  0  0  0
    7.4121    0.8393    0.0730 H   0  0  0  0  0  0
    6.8558   -0.4034   -2.5279 H   0  0  0  0  0  0
    5.7065   -2.6375    0.9686 H   0  0  0  0  0  0
    7.9874   -2.3754   -3.4362 H   0  0  0  0  0  0
    6.8400   -4.6373    0.0671 H   0  0  0  0  0  0
    7.4909   -5.7602   -2.1291 H   0  0  0  0  0  0
    8.0205   -4.4257   -4.4376 H   0  0  0  0  0  0
    9.8002   -4.3843   -0.8696 H   0  0  0  0  0  0
    9.4258   -6.1050   -0.8482 H   0  0  0  0  0  0
    8.1874   -6.9220   -3.8862 H   0  0  0  0  0  0
   10.6569   -4.3762   -4.5592 H   0  0  0  0  0  0
   10.1414   -3.3374   -3.2109 H   0  0  0  0  0  0
   11.5709   -5.3588   -2.2999 H   0  0  0  0  0  0
   10.0348   -7.5583   -2.7657 H   0  0  0  0  0  0
   10.9769   -6.9412   -4.1314 H   0  0  0  0  0  0
    9.1289   -6.3629   -5.1313 H   0  0  0  0  0  0
  1  2  1  0  0  0
  2  3  1  0  0  0
  2  4  1  0  0  0
  2  5  1  0  0  0
  5  6  2  0  0  0
  5  7  1  0  0  0
  6  8  1  0  0  0
  6 37  1  0  0  0
  7  9  2  0  0  0
  7 38  1  0  0  0
  8 10  2  0  0  0
  8 39  1  0  0  0
  9 10  1  0  0  0
  9 40  1  0  0  0
 10 11  1  0  0  0
 11 12  2  0  0  0
 11 13  1  0  0  0
 12 14  1  0  0  0
 12 41  1  0  0  0
 13 15  2  0  0  0
 13 42  1  0  0  0
 14 16  1  0  0  0
 14 17  2  0  0  0
 15 16  1  0  0  0
 15 43  1  0  0  0
 16 18  2  0  0  0
 17 19  1  0  0  0
 17 44  1  0  0  0
 18 20  1  0  0  0
 18 21  1  0  0  0
 19 22  1  0  0  0
 19 21  2  0  0  0
 20 23  2  0  0  0
 20 24  1  0  0  0
 21 45  1  0  0  0
 22 25  2  0  0  0
 22 26  1  0  0  0
 23 27  1  0  0  0
 23 46  1  0  0  0
 24 28  2  0  0  0
 24 47  1  0  0  0
 27 29  2  0  0  0
 27 48  1  0  0  0
 28 29  1  0  0  0
 28 49  1  0  0  0
 29 30  1  0  0  0
 30 31  1  0  0  0
 30 32  1  0  0  0
 30 50  1  0  0  0
 31 33  1  0  0  0
 31 34  1  0  0  0
 31 51  1  0  0  0
 32 35  1  0  0  0
 32 52  1  0  0  0
 32 53  1  0  0  0
 33 36  1  0  0  0
 33 54  1  0  0  0
 33 60  1  0  0  0
 34 35  1  0  0  0
 34 55  1  0  0  0
 34 56  1  0  0  0
 35 36  1  0  0  0
 35 57  1  0  0  0
 36 58  1  0  0  0
 36 59  1  0  0  0
M  CHG  2  26  -1  33   1
M  END
> <i_epik_Tot_Q>
0

> <i_epik_Tot_abs_Q>
2

> <i_lp_mmshare_version>
62121

> <i_m_Source_File_Index>
86

> <i_phase_Input_Structure_Number>
106

> <i_phase_Reference_Structure>
110

> <i_phase_Structure_Number>
106

> <Molecule Name>
150

> <Rotatable Bonds>
5

> <i_f3d_flags>
0

> <b_lp_Chiralities_Consistent>
1

> <r_canvas_IC50_human_P2Y14R,_nM>
9.8

> <r_canvas_pIC50>
8.00877392430751

> <r_epik_Charging_Adjusted_Penalty>
0.00153216943346514

> <r_epik_Ionization_Penalty>
  0.0008

> <r_epik_Ionization_Penalty_Charging>
  0.0008

> <r_epik_Ionization_Penalty_Neutral>
  0.0000

> <r_epik_State_Penalty>
  0.0007

> <r_lp_Energy>
85.985646

> <r_phase_Similarity_to_Reference>
0.948979749498753

> <s_canvas_CHEMBLID>
CHEMBL4207098

> <s_canvas_Compound>
17

> <s_canvas_Paper>
Wen2022

> <s_epik_cmdline>
J2VwaWtfcHl0aG9uJywgJy1waCcsICc3LjAnLCAnLXRuJywgJzgnLCAnLW1hJywgJzUwMCcsICctaW1hZScsICc8aW5maWxlLm1hZT4nLCAnLW9tYWUnLCAnPG91dGZpbGUubWFlPic=

> <s_epik_input>
RkMoRikoRiljMVtjSF1bY0hdYyhbY0hdW2NIXTEpLWMoW2NIXTIpW2NIXVtjSF1jKGMyMyljKFtjSF1jKFtjSF0zKUMoPU8pW09IXSktYzRbY0hdW2NIXWMoW2NIXVtjSF00KVtDQEBIXShbQ0BIXTU2KVtDSDJdW0NASF0oW0NIMl02KVtDSDJdW05IXTU=

> <s_lp_Force_Field>
S-OPLS

> <s_lp_Variant>
150-1

> <s_m_Source_File>
database-aligned.sdf

> <s_m_Source_Path>
/data/matteo/P2Y14-antagonists-piperidineDerivatives-Wen2023/14052024-optimized-alignment

> <s_m_entry_id>
86

> <s_m_entry_name>
database-aligned.86

> <s_m_job_name>
align_ligands_1

> <s_phase_Alignment_Method>
flexible least-squares core

> <s_phase_Alignment_Reason>
stereochemistry change

> <s_phase_Core_SMARTS>
A12[A]AA(A1)A(A2)a3aaa(aa3)-a(aaa4)a(a45)aaa(a5)-a6aaaaa6

$$$$
151
                    3D
 Schrodinger Suite 2023-2.
 60 65  0  0  1  0            999 V2000
   -5.0481   -0.5306    1.2767 F   0  0  0  0  0  0
   -4.4821    0.6211    0.9143 C   0  0  0  0  0  0
   -5.0116    1.0050   -0.2469 F   0  0  0  0  0  0
   -4.7632    1.5396    1.8383 F   0  0  0  0  0  0
   -2.9730    0.4939    0.7677 C   0  0  0  0  0  0
   -2.3100   -0.7259    1.0182 C   0  0  0  0  0  0
   -2.2150    1.6163    0.3778 C   0  0  0  0  0  0
   -0.9123   -0.8180    0.8722 C   0  0  0  0  0  0
   -0.8173    1.5194    0.2345 C   0  0  0  0  0  0
   -0.1435    0.3005    0.4764 C   0  0  0  0  0  0
    1.3213    0.1946    0.3158 C   0  0  0  0  0  0
    2.1781    1.2498    0.7017 C   0  0  0  0  0  0
    1.9049   -0.9675   -0.2340 C   0  0  0  0  0  0
    3.5772    1.1492    0.5492 C   0  0  0  0  0  0
    3.2987   -1.0778   -0.3903 C   0  0  0  0  0  0
    4.1553   -0.0249    0.0046 C   0  0  0  0  0  0
    4.3965    2.2263    0.9408 C   0  0  0  0  0  0
    5.5649   -0.1182   -0.1411 C   0  0  0  0  0  0
    5.7980    2.1529    0.7906 C   0  0  0  0  0  0
    6.2309   -1.3168   -0.6809 C   0  0  0  0  0  0
    6.3647    0.9783    0.2477 C   0  0  0  0  0  0
    6.6730    3.3062    1.2025 C   0  0  0  0  0  0
    6.2476   -2.5238    0.0492 C   0  0  0  0  0  0
    6.8718   -1.2781   -1.9364 C   0  0  0  0  0  0
    7.9116    3.2082    1.0540 O   0  0  0  0  0  0
    6.1375    4.3309    1.6813 O   0  5  0  0  0  0
    6.8718   -3.6722   -0.4733 C   0  0  0  0  0  0
    7.4975   -2.4247   -2.4629 C   0  0  0  0  0  0
    7.4957   -3.6386   -1.7386 C   0  0  0  0  0  0
    8.1568   -4.9122   -2.2670 C   0  0  2  0  0  0
    9.6931   -4.9673   -2.0528 C   0  0  1  0  0  0
    8.0278   -5.1851   -3.7971 C   0  0  0  0  0  0
   10.1008   -6.4281   -2.2522 N   0  3  0  0  0  0
   10.2318   -4.4106   -3.3724 C   0  0  0  0  0  0
    9.4979   -5.4589   -4.2093 C   0  0  1  0  0  0
    9.9527   -6.6853   -3.5551 C   0  0  0  0  0  0
   -2.8696   -1.5970    1.3256 H   0  0  0  0  0  0
   -2.7019    2.5611    0.1859 H   0  0  0  0  0  0
   -0.4301   -1.7630    1.0749 H   0  0  0  0  0  0
   -0.2630    2.3936   -0.0743 H   0  0  0  0  0  0
    1.7586    2.1498    1.1276 H   0  0  0  0  0  0
    1.2808   -1.7896   -0.5520 H   0  0  0  0  0  0
    3.6923   -1.9849   -0.8232 H   0  0  0  0  0  0
    3.9399    3.1142    1.3545 H   0  0  0  0  0  0
    7.4363    0.9024    0.1305 H   0  0  0  0  0  0
    5.7709   -2.5714    1.0176 H   0  0  0  0  0  0
    6.8781   -0.3604   -2.5067 H   0  0  0  0  0  0
    6.8651   -4.5836    0.1065 H   0  0  0  0  0  0
    7.9715   -2.3506   -3.4288 H   0  0  0  0  0  0
    7.7010   -5.7467   -1.7306 H   0  0  0  0  0  0
   10.0645   -4.5214   -1.1296 H   0  0  0  0  0  0
    7.3706   -6.0295   -4.0090 H   0  0  0  0  0  0
    7.6370   -4.3317   -4.3496 H   0  0  0  0  0  0
   11.0721   -6.5444   -2.0010 H   0  0  0  0  0  0
    9.9339   -3.3842   -3.5833 H   0  0  0  0  0  0
   11.3185   -4.4807   -3.4541 H   0  0  0  0  0  0
    9.6784   -5.4200   -5.2840 H   0  0  0  0  0  0
   10.9185   -6.9960   -3.9557 H   0  0  0  0  0  0
    9.2613   -7.5149   -3.7089 H   0  0  0  0  0  0
    9.5223   -7.0379   -1.6923 H   0  0  0  0  0  0
  1  2  1  0  0  0
  2  3  1  0  0  0
  2  4  1  0  0  0
  2  5  1  0  0  0
  5  6  2  0  0  0
  5  7  1  0  0  0
  6  8  1  0  0  0
  6 37  1  0  0  0
  7  9  2  0  0  0
  7 38  1  0  0  0
  8 10  2  0  0  0
  8 39  1  0  0  0
  9 10  1  0  0  0
  9 40  1  0  0  0
 10 11  1  0  0  0
 11 12  2  0  0  0
 11 13  1  0  0  0
 12 14  1  0  0  0
 12 41  1  0  0  0
 13 15  2  0  0  0
 13 42  1  0  0  0
 14 16  1  0  0  0
 14 17  2  0  0  0
 15 16  1  0  0  0
 15 43  1  0  0  0
 16 18  2  0  0  0
 17 19  1  0  0  0
 17 44  1  0  0  0
 18 20  1  0  0  0
 18 21  1  0  0  0
 19 22  1  0  0  0
 19 21  2  0  0  0
 20 23  2  0  0  0
 20 24  1  0  0  0
 21 45  1  0  0  0
 22 25  2  0  0  0
 22 26  1  0  0  0
 23 27  1  0  0  0
 23 46  1  0  0  0
 24 28  2  0  0  0
 24 47  1  0  0  0
 27 29  2  0  0  0
 27 48  1  0  0  0
 28 29  1  0  0  0
 28 49  1  0  0  0
 29 30  1  0  0  0
 30 31  1  0  0  0
 30 32  1  0  0  0
 30 50  1  0  0  0
 31 33  1  0  0  0
 31 34  1  0  0  0
 31 51  1  0  0  0
 32 35  1  0  0  0
 32 52  1  0  0  0
 32 53  1  0  0  0
 33 36  1  0  0  0
 33 54  1  0  0  0
 33 60  1  0  0  0
 34 35  1  0  0  0
 34 55  1  0  0  0
 34 56  1  0  0  0
 35 36  1  0  0  0
 35 57  1  0  0  0
 36 58  1  0  0  0
 36 59  1  0  0  0
M  CHG  2  26  -1  33   1
M  END
> <i_epik_Tot_Q>
0

> <i_epik_Tot_abs_Q>
2

> <i_lp_mmshare_version>
62121

> <i_m_Source_File_Index>
87

> <i_phase_Input_Structure_Number>
107

> <i_phase_Reference_Structure>
110

> <i_phase_Structure_Number>
107

> <Molecule Name>
151

> <Rotatable Bonds>
5

> <i_f3d_flags>
0

> <b_lp_Chiralities_Consistent>
1

> <r_canvas_IC50_human_P2Y14R,_nM>
25.9

> <r_canvas_pIC50>
7.58670023591875

> <r_epik_Charging_Adjusted_Penalty>
0.00153216943346514

> <r_epik_Ionization_Penalty>
  0.0008

> <r_epik_Ionization_Penalty_Charging>
  0.0008

> <r_epik_Ionization_Penalty_Neutral>
  0.0000

> <r_epik_State_Penalty>
  0.0007

> <r_lp_Energy>
85.985417

> <r_phase_Similarity_to_Reference>
0.970790811022219

> <s_canvas_CHEMBLID>
CHEMBL4206519

> <s_canvas_Compound>
18

> <s_canvas_Paper>
Wen2022

> <s_epik_cmdline>
J2VwaWtfcHl0aG9uJywgJy1waCcsICc3LjAnLCAnLXRuJywgJzgnLCAnLW1hJywgJzUwMCcsICctaW1hZScsICc8aW5maWxlLm1hZT4nLCAnLW9tYWUnLCAnPG91dGZpbGUubWFlPic=

> <s_epik_input>
RkMoRikoRiljMVtjSF1bY0hdYyhbY0hdW2NIXTEpLWMoW2NIXTIpW2NIXVtjSF1jKGMyMyljKFtjSF1jKFtjSF0zKUMoPU8pW09IXSktYzRbY0hdW2NIXWMoW2NIXVtjSF00KVtDQEhdKFtDQEBIXTU2KVtDSDJdW0NAQEhdKFtDSDJdNilbQ0gyXVtOSF01

> <s_lp_Force_Field>
S-OPLS

> <s_lp_Variant>
151-1

> <s_m_Source_File>
database-aligned.sdf

> <s_m_Source_Path>
/data/matteo/P2Y14-antagonists-piperidineDerivatives-Wen2023/14052024-optimized-alignment

> <s_m_entry_id>
87

> <s_m_entry_name>
database-aligned.87

> <s_m_job_name>
align_ligands_1

> <s_phase_Alignment_Method>
snapped core

> <s_phase_Alignment_Reason>


> <s_phase_Core_SMARTS>
A12[A]AA(A1)A(A2)a3aaa(aa3)-a(aaa4)a(a45)aaa(a5)-a6aaaaa6

$$$$
152
                    3D
 Schrodinger Suite 2023-2.
 64 69  0  0  1  0            999 V2000
   -5.0481   -0.5306    1.2767 F   0  0  0  0  0  0
   -4.4821    0.6211    0.9143 C   0  0  0  0  0  0
   -5.0116    1.0050   -0.2469 F   0  0  0  0  0  0
   -4.7632    1.5396    1.8383 F   0  0  0  0  0  0
   -2.9730    0.4939    0.7677 C   0  0  0  0  0  0
   -2.3100   -0.7259    1.0182 C   0  0  0  0  0  0
   -2.2150    1.6163    0.3778 C   0  0  0  0  0  0
   -0.9123   -0.8180    0.8722 C   0  0  0  0  0  0
   -0.8173    1.5194    0.2345 C   0  0  0  0  0  0
   -0.1435    0.3005    0.4764 C   0  0  0  0  0  0
    1.3213    0.1946    0.3158 C   0  0  0  0  0  0
    2.1781    1.2498    0.7017 C   0  0  0  0  0  0
    1.9049   -0.9675   -0.2340 C   0  0  0  0  0  0
    3.5772    1.1492    0.5492 C   0  0  0  0  0  0
    3.2987   -1.0778   -0.3903 C   0  0  0  0  0  0
    4.1553   -0.0249    0.0046 C   0  0  0  0  0  0
    4.3965    2.2263    0.9408 C   0  0  0  0  0  0
    5.5649   -0.1182   -0.1411 C   0  0  0  0  0  0
    5.7980    2.1529    0.7906 C   0  0  0  0  0  0
    6.2309   -1.3168   -0.6809 C   0  0  0  0  0  0
    6.3647    0.9783    0.2477 C   0  0  0  0  0  0
    6.6730    3.3062    1.2025 C   0  0  0  0  0  0
    6.8718   -1.2781   -1.9364 C   0  0  0  0  0  0
    6.2476   -2.5238    0.0492 C   0  0  0  0  0  0
    7.9116    3.2082    1.0540 O   0  0  0  0  0  0
    6.1375    4.3309    1.6813 O   0  5  0  0  0  0
    7.4975   -2.4247   -2.4629 C   0  0  0  0  0  0
    6.8718   -3.6722   -0.4733 C   0  0  0  0  0  0
    7.4957   -3.6386   -1.7386 C   0  0  0  0  0  0
    8.1568   -4.9122   -2.2670 C   0  0  2  0  0  0
    9.6931   -4.9673   -2.0528 C   0  0  1  0  0  0
    8.0278   -5.1851   -3.7971 C   0  0  0  0  0  0
   10.1008   -6.4281   -2.2522 C   0  0  0  0  0  0
   10.2318   -4.4106   -3.3724 C   0  0  0  0  0  0
    9.4979   -5.4589   -4.2093 C   0  0  1  0  0  0
    9.9527   -6.6853   -3.5551 N   0  0  0  0  0  0
   10.1470   -7.8617   -4.1936 C   0  0  0  0  0  0
    9.9484   -7.9899   -5.4013 O   0  0  0  0  0  0
   10.6325   -9.0874   -3.4105 C   0  0  0  0  0  0
   -2.8691   -1.5965    1.3278 H   0  0  0  0  0  0
   -2.7015    2.5616    0.1874 H   0  0  0  0  0  0
   -0.4300   -1.7628    1.0756 H   0  0  0  0  0  0
   -0.2630    2.3936   -0.0744 H   0  0  0  0  0  0
    1.7585    2.1497    1.1278 H   0  0  0  0  0  0
    1.2807   -1.7893   -0.5525 H   0  0  0  0  0  0
    3.6925   -1.9846   -0.8237 H   0  0  0  0  0  0
    3.9394    3.1140    1.3542 H   0  0  0  0  0  0
    7.4363    0.9026    0.1304 H   0  0  0  0  0  0
    6.8779   -0.3609   -2.5073 H   0  0  0  0  0  0
    5.7710   -2.5718    1.0175 H   0  0  0  0  0  0
    7.9716   -2.3518   -3.4289 H   0  0  0  0  0  0
    6.8663   -4.5842    0.1056 H   0  0  0  0  0  0
    7.6903   -5.7421   -1.7333 H   0  0  0  0  0  0
   10.0589   -4.5110   -1.1324 H   0  0  0  0  0  0
    7.3778   -6.0353   -4.0078 H   0  0  0  0  0  0
    7.6338   -4.3342   -4.3510 H   0  0  0  0  0  0
   11.1476   -6.5602   -1.9714 H   0  0  0  0  0  0
    9.5075   -7.1008   -1.6299 H   0  0  0  0  0  0
    9.9332   -3.3846   -3.5839 H   0  0  0  0  0  0
   11.3183   -4.4806   -3.4560 H   0  0  0  0  0  0
    9.6934   -5.3968   -5.2809 H   0  0  0  0  0  0
   10.8297   -8.8945   -2.3573 H   0  0  0  0  0  0
   11.5551   -9.4631   -3.8533 H   0  0  0  0  0  0
    9.8864   -9.8800   -3.4691 H   0  0  0  0  0  0
  1  2  1  0  0  0
  2  3  1  0  0  0
  2  4  1  0  0  0
  2  5  1  0  0  0
  5  6  2  0  0  0
  5  7  1  0  0  0
  6  8  1  0  0  0
  6 40  1  0  0  0
  7  9  2  0  0  0
  7 41  1  0  0  0
  8 10  2  0  0  0
  8 42  1  0  0  0
  9 10  1  0  0  0
  9 43  1  0  0  0
 10 11  1  0  0  0
 11 12  2  0  0  0
 11 13  1  0  0  0
 12 14  1  0  0  0
 12 44  1  0  0  0
 13 15  2  0  0  0
 13 45  1  0  0  0
 14 16  1  0  0  0
 14 17  2  0  0  0
 15 16  1  0  0  0
 15 46  1  0  0  0
 16 18  2  0  0  0
 17 19  1  0  0  0
 17 47  1  0  0  0
 18 20  1  0  0  0
 18 21  1  0  0  0
 19 22  1  0  0  0
 19 21  2  0  0  0
 20 23  2  0  0  0
 20 24  1  0  0  0
 21 48  1  0  0  0
 22 25  2  0  0  0
 22 26  1  0  0  0
 23 27  1  0  0  0
 23 49  1  0  0  0
 24 28  2  0  0  0
 24 50  1  0  0  0
 27 29  2  0  0  0
 27 51  1  0  0  0
 28 29  1  0  0  0
 28 52  1  0  0  0
 29 30  1  0  0  0
 30 31  1  0  0  0
 30 32  1  0  0  0
 30 53  1  0  0  0
 31 33  1  0  0  0
 31 34  1  0  0  0
 31 54  1  0  0  0
 32 35  1  0  0  0
 32 55  1  0  0  0
 32 56  1  0  0  0
 33 36  1  0  0  0
 33 57  1  0  0  0
 33 58  1  0  0  0
 34 35  1  0  0  0
 34 59  1  0  0  0
 34 60  1  0  0  0
 35 36  1  0  0  0
 35 61  1  0  0  0
 36 37  1  0  0  0
 37 38  2  0  0  0
 37 39  1  0  0  0
 39 62  1  0  0  0
 39 63  1  0  0  0
 39 64  1  0  0  0
M  CHG  1  26  -1
M  END
> <i_epik_Tot_Q>
-1

> <i_epik_Tot_abs_Q>
1

> <i_lp_mmshare_version>
62121

> <i_m_Source_File_Index>
88

> <i_phase_Input_Structure_Number>
108

> <i_phase_Reference_Structure>
110

> <i_phase_Structure_Number>
108

> <Molecule Name>
152

> <Rotatable Bonds>
5

> <i_f3d_flags>
0

> <b_lp_Chiralities_Consistent>
1

> <r_canvas_IC50_human_P2Y14R,_nM>
99.3

> <r_canvas_pIC50>
7.00305075150462

> <r_epik_Charging_Adjusted_Penalty>
0.00143519162298062

> <r_epik_Ionization_Penalty>
  0.0007

> <r_epik_Ionization_Penalty_Charging>
  0.0007

> <r_epik_Ionization_Penalty_Neutral>
  0.0000

> <r_epik_State_Penalty>
  0.0007

> <r_lp_Energy>
82.054125

> <r_phase_Similarity_to_Reference>
0.935241409191437

> <s_canvas_CHEMBLID>
CHEMBL4206291

> <s_canvas_Compound>
19

> <s_canvas_Paper>
Wen2022

> <s_epik_cmdline>
J2VwaWtfcHl0aG9uJywgJy1waCcsICc3LjAnLCAnLXRuJywgJzgnLCAnLW1hJywgJzUwMCcsICctaW1hZScsICc8aW5maWxlLm1hZT4nLCAnLW9tYWUnLCAnPG91dGZpbGUubWFlPic=

> <s_epik_input>
RkMoRikoRiljMVtjSF1bY0hdYyhbY0hdW2NIXTEpLWMoW2NIXTIpW2NIXVtjSF1jKGMyMyljKFtjSF1jKFtjSF0zKUMoPU8pW09IXSktYzRbY0hdW2NIXWMoW2NIXVtjSF00KVtDQEhdKFtDQEBIXTU2KVtDSDJdW0NAQEhdKFtDSDJdNilOKFtDSDJdNSlDKD1PKVtDSDNd

> <s_lp_Force_Field>
S-OPLS

> <s_lp_Variant>
152-1

> <s_m_Source_File>
database-aligned.sdf

> <s_m_Source_Path>
/data/matteo/P2Y14-antagonists-piperidineDerivatives-Wen2023/14052024-optimized-alignment

> <s_m_entry_id>
88

> <s_m_entry_name>
database-aligned.88

> <s_m_job_name>
align_ligands_1

> <s_phase_Alignment_Method>
snapped core

> <s_phase_Alignment_Reason>


> <s_phase_Core_SMARTS>
A12[A]AA(A1)A(A2)a3aaa(aa3)-a(aaa4)a(a45)aaa(a5)-a6aaaaa6

$$$$
153
                    3D
 Schrodinger Suite 2023-2.
 64 69  0  0  1  0            999 V2000
   -5.0854   -0.4415    1.2744 F   0  0  0  0  0  0
   -4.4959    0.7175    0.9787 C   0  0  0  0  0  0
   -5.0266    1.1838   -0.1517 F   0  0  0  0  0  0
   -4.7465    1.5837    1.9601 F   0  0  0  0  0  0
   -2.9914    0.5648    0.8120 C   0  0  0  0  0  0
   -2.2219    1.6679    0.3910 C   0  0  0  0  0  0
   -2.3441   -0.6608    1.0754 C   0  0  0  0  0  0
   -0.8280    1.5466    0.2326 C   0  0  0  0  0  0
   -0.9498   -0.7771    0.9139 C   0  0  0  0  0  0
   -0.1694    0.3224    0.4893 C   0  0  0  0  0  0
    1.2926    0.1953    0.3183 C   0  0  0  0  0  0
    2.1609    1.2488    0.6799 C   0  0  0  0  0  0
    1.8624   -0.9813   -0.2157 C   0  0  0  0  0  0
    3.5571    1.1346    0.5172 C   0  0  0  0  0  0
    3.2548   -1.1059   -0.3813 C   0  0  0  0  0  0
    4.1227   -0.0527   -0.0123 C   0  0  0  0  0  0
    4.3842    2.2141    0.8831 C   0  0  0  0  0  0
    5.5309   -0.1551   -0.1691 C   0  0  0  0  0  0
    5.7835    2.1307    0.7238 C   0  0  0  0  0  0
    6.1961   -1.3582   -0.7008 C   0  0  0  0  0  0
    6.3387    0.9434    0.1979 C   0  0  0  0  0  0
    6.6684    3.2860    1.1076 C   0  0  0  0  0  0
    6.8543   -1.3168   -1.9476 C   0  0  0  0  0  0
    6.2143   -2.5637    0.0328 C   0  0  0  0  0  0
    7.9060    3.1750    0.9589 O   0  0  0  0  0  0
    6.1419    4.3255    1.5639 O   0  5  0  0  0  0
    7.5141   -2.4525   -2.4545 C   0  0  0  0  0  0
    6.8733   -3.7020   -0.4703 C   0  0  0  0  0  0
    7.5310   -3.6579   -1.7174 C   0  0  0  0  0  0
    8.2505   -4.9104   -2.2136 C   0  0  1  0  0  0
    8.6137   -4.9600   -3.7241 C   0  0  2  0  0  0
    9.6261   -5.1347   -1.5387 C   0  0  0  0  0  0
    8.9079   -6.4236   -4.1021 C   0  0  0  0  0  0
   10.0296   -4.3994   -3.7542 C   0  0  0  0  0  0
   10.5426   -5.4165   -2.7438 C   0  0  2  0  0  0
   10.1277   -6.6928   -3.3385 N   0  0  0  0  0  0
   10.7024   -7.9020   -3.1883 C   0  0  0  0  0  0
   10.2570   -8.9157   -3.7252 O   0  0  0  0  0  0
   11.9513   -8.0088   -2.3131 C   0  0  0  0  0  0
   -2.7027    2.6134    0.1869 H   0  0  0  0  0  0
   -2.9079   -1.5209    1.4045 H   0  0  0  0  0  0
   -0.2648    2.4068   -0.0985 H   0  0  0  0  0  0
   -0.4782   -1.7249    1.1284 H   0  0  0  0  0  0
    1.7521    2.1591    1.0943 H   0  0  0  0  0  0
    1.2280   -1.8028   -0.5142 H   0  0  0  0  0  0
    3.6395   -2.0230   -0.8011 H   0  0  0  0  0  0
    3.9359    3.1118    1.2846 H   0  0  0  0  0  0
    7.4091    0.8607    0.0734 H   0  0  0  0  0  0
    6.8574   -0.4021   -2.5225 H   0  0  0  0  0  0
    5.7222   -2.6149    0.9931 H   0  0  0  0  0  0
    8.0077   -2.3750   -3.4106 H   0  0  0  0  0  0
    6.8786   -4.6124    0.1110 H   0  0  0  0  0  0
    7.5918   -5.7502   -1.9853 H   0  0  0  0  0  0
    7.8911   -4.4881   -4.3903 H   0  0  0  0  0  0
    9.9636   -4.2353   -1.0211 H   0  0  0  0  0  0
    9.6102   -5.9504   -0.8149 H   0  0  0  0  0  0
    8.0930   -7.0965   -3.8306 H   0  0  0  0  0  0
    9.1014   -6.5315   -5.1705 H   0  0  0  0  0  0
   10.5079   -4.4829   -4.7321 H   0  0  0  0  0  0
   10.1101   -3.3688   -3.4060 H   0  0  0  0  0  0
   11.6084   -5.3277   -2.5324 H   0  0  0  0  0  0
   11.7569   -7.6216   -1.3125 H   0  0  0  0  0  0
   12.7760   -7.4468   -2.7518 H   0  0  0  0  0  0
   12.2660   -9.0484   -2.2161 H   0  0  0  0  0  0
  1  2  1  0  0  0
  2  3  1  0  0  0
  2  4  1  0  0  0
  2  5  1  0  0  0
  5  6  2  0  0  0
  5  7  1  0  0  0
  6  8  1  0  0  0
  6 40  1  0  0  0
  7  9  2  0  0  0
  7 41  1  0  0  0
  8 10  2  0  0  0
  8 42  1  0  0  0
  9 10  1  0  0  0
  9 43  1  0  0  0
 10 11  1  0  0  0
 11 12  2  0  0  0
 11 13  1  0  0  0
 12 14  1  0  0  0
 12 44  1  0  0  0
 13 15  2  0  0  0
 13 45  1  0  0  0
 14 16  1  0  0  0
 14 17  2  0  0  0
 15 16  1  0  0  0
 15 46  1  0  0  0
 16 18  2  0  0  0
 17 19  1  0  0  0
 17 47  1  0  0  0
 18 20  1  0  0  0
 18 21  1  0  0  0
 19 22  1  0  0  0
 19 21  2  0  0  0
 20 23  2  0  0  0
 20 24  1  0  0  0
 21 48  1  0  0  0
 22 25  2  0  0  0
 22 26  1  0  0  0
 23 27  1  0  0  0
 23 49  1  0  0  0
 24 28  2  0  0  0
 24 50  1  0  0  0
 27 29  2  0  0  0
 27 51  1  0  0  0
 28 29  1  0  0  0
 28 52  1  0  0  0
 29 30  1  0  0  0
 30 31  1  0  0  0
 30 32  1  0  0  0
 30 53  1  0  0  0
 31 33  1  0  0  0
 31 34  1  0  0  0
 31 54  1  0  0  0
 32 35  1  0  0  0
 32 55  1  0  0  0
 32 56  1  0  0  0
 33 36  1  0  0  0
 33 57  1  0  0  0
 33 58  1  0  0  0
 34 35  1  0  0  0
 34 59  1  0  0  0
 34 60  1  0  0  0
 35 36  1  0  0  0
 35 61  1  0  0  0
 36 37  1  0  0  0
 37 38  2  0  0  0
 37 39  1  0  0  0
 39 62  1  0  0  0
 39 63  1  0  0  0
 39 64  1  0  0  0
M  CHG  1  26  -1
M  END
> <i_epik_Tot_Q>
-1

> <i_epik_Tot_abs_Q>
1

> <i_lp_mmshare_version>
62121

> <i_m_Source_File_Index>
89

> <i_phase_Input_Structure_Number>
109

> <i_phase_Reference_Structure>
110

> <i_phase_Structure_Number>
109

> <Molecule Name>
153

> <Rotatable Bonds>
5

> <i_f3d_flags>
0

> <b_lp_Chiralities_Consistent>
1

> <r_canvas_IC50_human_P2Y14R,_nM>
64.1

> <r_canvas_pIC50>
7.19314197048118

> <r_epik_Charging_Adjusted_Penalty>
0.00143519162298062

> <r_epik_Ionization_Penalty>
  0.0007

> <r_epik_Ionization_Penalty_Charging>
  0.0007

> <r_epik_Ionization_Penalty_Neutral>
  0.0000

> <r_epik_State_Penalty>
  0.0007

> <r_lp_Energy>
82.245618

> <r_phase_Similarity_to_Reference>
0.916686124471177

> <s_canvas_CHEMBLID>
CHEMBL4205655

> <s_canvas_Compound>
20

> <s_canvas_Paper>
Wen2022

> <s_epik_cmdline>
J2VwaWtfcHl0aG9uJywgJy1waCcsICc3LjAnLCAnLXRuJywgJzgnLCAnLW1hJywgJzUwMCcsICctaW1hZScsICc8aW5maWxlLm1hZT4nLCAnLW9tYWUnLCAnPG91dGZpbGUubWFlPic=

> <s_epik_input>
RkMoRikoRiljMVtjSF1bY0hdYyhbY0hdW2NIXTEpLWMoW2NIXTIpW2NIXVtjSF1jKGMyMyljKFtjSF1jKFtjSF0zKUMoPU8pW09IXSktYzRbY0hdW2NIXWMoW2NIXVtjSF00KVtDQEBIXShbQ0BIXTU2KVtDSDJdW0NASF0oW0NIMl02KU4oW0NIMl01KUMoPU8pW0NIM10=

> <s_lp_Force_Field>
S-OPLS

> <s_lp_Variant>
153-1

> <s_m_Source_File>
database-aligned.sdf

> <s_m_Source_Path>
/data/matteo/P2Y14-antagonists-piperidineDerivatives-Wen2023/14052024-optimized-alignment

> <s_m_entry_id>
89

> <s_m_entry_name>
database-aligned.89

> <s_m_job_name>
align_ligands_1

> <s_phase_Alignment_Method>
flexible least-squares core

> <s_phase_Alignment_Reason>
stereochemistry change

> <s_phase_Core_SMARTS>
A12[A]AA(A1)A(A2)a3aaa(aa3)-a(aaa4)a(a45)aaa(a5)-a6aaaaa6

$$$$
154
                    3D
 Schrodinger Suite 2023-2.
 58 63  0  0  1  0            999 V2000
   -5.0556   -0.5534    1.1907 F   0  0  0  0  0  0
   -4.4827    0.6184    0.9129 C   0  0  0  0  0  0
   -5.0044    1.0836   -0.2221 F   0  0  0  0  0  0
   -4.7647    1.4723    1.8964 F   0  0  0  0  0  0
   -2.9730    0.4939    0.7677 C   0  0  0  0  0  0
   -2.2150    1.6163    0.3778 C   0  0  0  0  0  0
   -2.3100   -0.7259    1.0182 C   0  0  0  0  0  0
   -0.8173    1.5194    0.2345 C   0  0  0  0  0  0
   -0.9123   -0.8180    0.8722 C   0  0  0  0  0  0
   -0.1435    0.3005    0.4764 C   0  0  0  0  0  0
    1.3213    0.1946    0.3158 C   0  0  0  0  0  0
    2.1781    1.2498    0.7017 C   0  0  0  0  0  0
    1.9049   -0.9675   -0.2340 C   0  0  0  0  0  0
    3.5772    1.1492    0.5492 C   0  0  0  0  0  0
    3.2987   -1.0778   -0.3903 C   0  0  0  0  0  0
    4.1553   -0.0249    0.0046 C   0  0  0  0  0  0
    4.3965    2.2263    0.9408 C   0  0  0  0  0  0
    5.5649   -0.1182   -0.1411 C   0  0  0  0  0  0
    5.7980    2.1529    0.7906 C   0  0  0  0  0  0
    6.2309   -1.3168   -0.6809 C   0  0  0  0  0  0
    6.3647    0.9783    0.2477 C   0  0  0  0  0  0
    6.6741    3.3051    1.2037 C   0  0  0  0  0  0
    6.8718   -1.2781   -1.9364 C   0  0  0  0  0  0
    6.2476   -2.5238    0.0492 C   0  0  0  0  0  0
    7.9114    3.2124    1.0415 O   0  0  0  0  0  0
    6.1407    4.3239    1.6971 O   0  5  0  0  0  0
    7.4975   -2.4247   -2.4629 C   0  0  0  0  0  0
    6.8718   -3.6722   -0.4733 C   0  0  0  0  0  0
    7.4957   -3.6386   -1.7386 C   0  0  0  0  0  0
    8.1568   -4.9122   -2.2670 C   0  0  2  0  0  0
    9.6931   -4.9673   -2.0528 C   0  0  1  0  0  0
    8.0278   -5.1851   -3.7971 C   0  0  0  0  0  0
   10.1008   -6.4281   -2.2522 C   0  0  0  0  0  0
   10.2318   -4.4106   -3.3724 C   0  0  0  0  0  0
    9.4979   -5.4589   -4.2093 C   0  0  1  0  0  0
   10.4743   -7.1953   -1.3679 O   0  0  0  0  0  0
    9.9527   -6.6853   -3.5551 N   0  0  0  0  0  0
   -2.7080    2.5576    0.1839 H   0  0  0  0  0  0
   -2.8648   -1.6005    1.3236 H   0  0  0  0  0  0
   -0.2631    2.3933   -0.0755 H   0  0  0  0  0  0
   -0.4301   -1.7632    1.0744 H   0  0  0  0  0  0
    1.7586    2.1499    1.1275 H   0  0  0  0  0  0
    1.2808   -1.7892   -0.5527 H   0  0  0  0  0  0
    3.6927   -1.9846   -0.8234 H   0  0  0  0  0  0
    3.9403    3.1144    1.3548 H   0  0  0  0  0  0
    7.4365    0.9025    0.1307 H   0  0  0  0  0  0
    6.8782   -0.3605   -2.5067 H   0  0  0  0  0  0
    5.7712   -2.5718    1.0176 H   0  0  0  0  0  0
    7.9714   -2.3510   -3.4289 H   0  0  0  0  0  0
    6.8673   -4.5837    0.1064 H   0  0  0  0  0  0
    7.6876   -5.7443   -1.7365 H   0  0  0  0  0  0
   10.0725   -4.5150   -1.1358 H   0  0  0  0  0  0
    7.3771   -6.0349   -4.0075 H   0  0  0  0  0  0
    7.6332   -4.3343   -4.3509 H   0  0  0  0  0  0
    9.9247   -3.3876   -3.5857 H   0  0  0  0  0  0
   11.3196   -4.4674   -3.4602 H   0  0  0  0  0  0
    9.6958   -5.4256   -5.2809 H   0  0  0  0  0  0
   10.1375   -7.5599   -4.0247 H   0  0  0  0  0  0
  1  2  1  0  0  0
  2  3  1  0  0  0
  2  4  1  0  0  0
  2  5  1  0  0  0
  5  6  2  0  0  0
  5  7  1  0  0  0
  6  8  1  0  0  0
  6 38  1  0  0  0
  7  9  2  0  0  0
  7 39  1  0  0  0
  8 10  2  0  0  0
  8 40  1  0  0  0
  9 10  1  0  0  0
  9 41  1  0  0  0
 10 11  1  0  0  0
 11 12  2  0  0  0
 11 13  1  0  0  0
 12 14  1  0  0  0
 12 42  1  0  0  0
 13 15  2  0  0  0
 13 43  1  0  0  0
 14 16  1  0  0  0
 14 17  2  0  0  0
 15 16  1  0  0  0
 15 44  1  0  0  0
 16 18  2  0  0  0
 17 19  1  0  0  0
 17 45  1  0  0  0
 18 20  1  0  0  0
 18 21  1  0  0  0
 19 22  1  0  0  0
 19 21  2  0  0  0
 20 23  2  0  0  0
 20 24  1  0  0  0
 21 46  1  0  0  0
 22 25  2  0  0  0
 22 26  1  0  0  0
 23 27  1  0  0  0
 23 47  1  0  0  0
 24 28  2  0  0  0
 24 48  1  0  0  0
 27 29  2  0  0  0
 27 49  1  0  0  0
 28 29  1  0  0  0
 28 50  1  0  0  0
 29 30  1  0  0  0
 30 31  1  0  0  0
 30 32  1  0  0  0
 30 51  1  0  0  0
 31 33  1  0  0  0
 31 34  1  0  0  0
 31 52  1  0  0  0
 32 35  1  0  0  0
 32 53  1  0  0  0
 32 54  1  0  0  0
 33 36  2  0  0  0
 33 37  1  0  0  0
 34 35  1  0  0  0
 34 55  1  0  0  0
 34 56  1  0  0  0
 35 37  1  0  0  0
 35 57  1  0  0  0
 37 58  1  0  0  0
M  CHG  1  26  -1
M  END
> <i_epik_Tot_Q>
-1

> <i_epik_Tot_abs_Q>
1

> <i_lp_mmshare_version>
62121

> <i_m_Source_File_Index>
90

> <i_phase_Input_Structure_Number>
110

> <i_phase_Reference_Structure>
116

> <i_phase_Structure_Number>
110

> <Molecule Name>
154

> <Rotatable Bonds>
5

> <i_f3d_flags>
0

> <b_lp_Chiralities_Consistent>
1

> <r_canvas_IC50_human_P2Y14R,_nM>
101

> <r_canvas_pIC50>
6.99567862621736

> <r_epik_Charging_Adjusted_Penalty>
0.00143519162298062

> <r_epik_Ionization_Penalty>
  0.0007

> <r_epik_Ionization_Penalty_Charging>
  0.0007

> <r_epik_Ionization_Penalty_Neutral>
  0.0000

> <r_epik_State_Penalty>
  0.0007

> <r_lp_Energy>
75.353714

> <r_phase_Similarity_to_Reference>
0.767508977459465

> <s_canvas_CHEMBLID>
CHEMBL4205258

> <s_canvas_Compound>
21

> <s_canvas_Paper>
Wen2022

> <s_epik_cmdline>
J2VwaWtfcHl0aG9uJywgJy1waCcsICc3LjAnLCAnLXRuJywgJzgnLCAnLW1hJywgJzUwMCcsICctaW1hZScsICc8aW5maWxlLm1hZT4nLCAnLW9tYWUnLCAnPG91dGZpbGUubWFlPic=

> <s_epik_input>
RkMoRikoRiljMVtjSF1bY0hdYyhbY0hdW2NIXTEpLWMoW2NIXTIpW2NIXVtjSF1jKGMyMyljKFtjSF1jKFtjSF0zKUMoPU8pW09IXSktYzRbY0hdW2NIXWMoW2NIXVtjSF00KVtDQEhdKFtDQEBIXTU2KVtDSDJdW0NAQEhdKFtDSDJdNilbTkhdQzU9Tw==

> <s_lp_Force_Field>
S-OPLS

> <s_lp_Variant>
154-1

> <s_m_Source_File>
database-aligned.sdf

> <s_m_Source_Path>
/data/matteo/P2Y14-antagonists-piperidineDerivatives-Wen2023/14052024-optimized-alignment

> <s_m_entry_id>
90

> <s_m_entry_name>
database-aligned.90

> <s_m_job_name>
align_ligands_1

> <s_phase_Alignment_Method>
flexible least-squares core

> <s_phase_Alignment_Reason>
open ring in core mapping

> <s_phase_Core_SMARTS>
a1aaaaa1-a(a2)aaa(a23)a(aaa3)-a4aaa(aa4)A5AA[A]AA5

$$$$
155
                    3D
 Schrodinger Suite 2023-2.
 58 63  0  0  1  0            999 V2000
   -5.0612   -0.6739    0.8305 F   0  0  0  0  0  0
   -4.4889    0.5102    1.0504 C   0  0  0  0  0  0
   -5.0351    1.3975    0.2183 F   0  0  0  0  0  0
   -4.7447    0.8841    2.3035 F   0  0  0  0  0  0
   -2.9827    0.4243    0.8502 C   0  0  0  0  0  0
   -2.2602    1.5235    0.3415 C   0  0  0  0  0  0
   -2.2861   -0.7537    1.1896 C   0  0  0  0  0  0
   -0.8653    1.4392    0.1662 C   0  0  0  0  0  0
   -0.8915   -0.8335    1.0109 C   0  0  0  0  0  0
   -0.1585    0.2597    0.4951 C   0  0  0  0  0  0
    1.3041    0.1719    0.3051 C   0  0  0  0  0  0
    2.1409    1.2790    0.5687 C   0  0  0  0  0  0
    1.9063   -1.0208   -0.1513 C   0  0  0  0  0  0
    3.5374    1.2012    0.3855 C   0  0  0  0  0  0
    3.2986   -1.1092   -0.3357 C   0  0  0  0  0  0
    4.1361   -0.0032   -0.0627 C   0  0  0  0  0  0
    4.3318    2.3337    0.6497 C   0  0  0  0  0  0
    5.5448   -0.0704   -0.2371 C   0  0  0  0  0  0
    5.7299    2.2871    0.4662 C   0  0  0  0  0  0
    6.2438   -1.2925   -0.6763 C   0  0  0  0  0  0
    6.3183    1.0819    0.0237 C   0  0  0  0  0  0
    6.5793    3.4993    0.7396 C   0  0  0  0  0  0
    6.2505   -2.4530    0.1268 C   0  0  0  0  0  0
    6.9429   -1.3169   -1.9014 C   0  0  0  0  0  0
    7.8170    3.4199    0.5733 O   0  0  0  0  0  0
    6.0241    4.5526    1.1248 O   0  5  0  0  0  0
    6.9254   -3.6149   -0.2921 C   0  0  0  0  0  0
    7.6229   -2.4759   -2.3231 C   0  0  0  0  0  0
    7.6175   -3.6392   -1.5205 C   0  0  0  0  0  0
    8.3362   -4.9244   -1.9287 C   0  0  1  0  0  0
    8.8956   -4.9853   -3.3788 C   0  0  2  0  0  0
    9.6119   -5.2028   -1.0811 C   0  0  0  0  0  0
    9.2713   -6.4453   -3.6380 C   0  0  0  0  0  0
   10.3076   -4.4201   -3.2014 C   0  0  0  0  0  0
   10.6875   -5.4748   -2.1624 C   0  0  2  0  0  0
    8.6818   -7.2129   -4.3950 O   0  0  0  0  0  0
   10.3397   -6.7005   -2.8785 N   0  0  0  0  0  0
   -2.7709    2.4390    0.0821 H   0  0  0  0  0  0
   -2.8192   -1.6029    1.5914 H   0  0  0  0  0  0
   -0.3383    2.2932   -0.2334 H   0  0  0  0  0  0
   -0.3834   -1.7468    1.2837 H   0  0  0  0  0  0
    1.7075    2.2035    0.9223 H   0  0  0  0  0  0
    1.2974   -1.8841   -0.3759 H   0  0  0  0  0  0
    3.7056   -2.0415   -0.6963 H   0  0  0  0  0  0
    3.8585    3.2436    0.9900 H   0  0  0  0  0  0
    7.3887    1.0268   -0.1146 H   0  0  0  0  0  0
    5.7305   -2.4536    1.0737 H   0  0  0  0  0  0
    6.9589   -0.4366   -2.5275 H   0  0  0  0  0  0
    6.9134   -4.4918    0.3385 H   0  0  0  0  0  0
    8.1465   -2.4487   -3.2661 H   0  0  0  0  0  0
    7.6173   -5.7342   -1.7844 H   0  0  0  0  0  0
    8.2789   -4.5486   -4.1648 H   0  0  0  0  0  0
    9.8938   -4.3303   -0.4894 H   0  0  0  0  0  0
    9.4820   -6.0414   -0.3959 H   0  0  0  0  0  0
   10.9150   -4.4614   -4.1086 H   0  0  0  0  0  0
   10.3336   -3.4025   -2.8084 H   0  0  0  0  0  0
   11.7197   -5.4375   -1.8132 H   0  0  0  0  0  0
   10.8412   -7.5746   -2.8127 H   0  0  0  0  0  0
  1  2  1  0  0  0
  2  3  1  0  0  0
  2  4  1  0  0  0
  2  5  1  0  0  0
  5  6  2  0  0  0
  5  7  1  0  0  0
  6  8  1  0  0  0
  6 38  1  0  0  0
  7  9  2  0  0  0
  7 39  1  0  0  0
  8 10  2  0  0  0
  8 40  1  0  0  0
  9 10  1  0  0  0
  9 41  1  0  0  0
 10 11  1  0  0  0
 11 12  2  0  0  0
 11 13  1  0  0  0
 12 14  1  0  0  0
 12 42  1  0  0  0
 13 15  2  0  0  0
 13 43  1  0  0  0
 14 16  1  0  0  0
 14 17  2  0  0  0
 15 16  1  0  0  0
 15 44  1  0  0  0
 16 18  2  0  0  0
 17 19  1  0  0  0
 17 45  1  0  0  0
 18 20  1  0  0  0
 18 21  1  0  0  0
 19 22  1  0  0  0
 19 21  2  0  0  0
 20 23  2  0  0  0
 20 24  1  0  0  0
 21 46  1  0  0  0
 22 25  2  0  0  0
 22 26  1  0  0  0
 23 27  1  0  0  0
 23 47  1  0  0  0
 24 28  2  0  0  0
 24 48  1  0  0  0
 27 29  2  0  0  0
 27 49  1  0  0  0
 28 29  1  0  0  0
 28 50  1  0  0  0
 29 30  1  0  0  0
 30 31  1  0  0  0
 30 32  1  0  0  0
 30 51  1  0  0  0
 31 33  1  0  0  0
 31 34  1  0  0  0
 31 52  1  0  0  0
 32 35  1  0  0  0
 32 53  1  0  0  0
 32 54  1  0  0  0
 33 36  2  0  0  0
 33 37  1  0  0  0
 34 35  1  0  0  0
 34 55  1  0  0  0
 34 56  1  0  0  0
 35 37  1  0  0  0
 35 57  1  0  0  0
 37 58  1  0  0  0
M  CHG  1  26  -1
M  END
> <i_epik_Tot_Q>
-1

> <i_epik_Tot_abs_Q>
1

> <i_lp_mmshare_version>
62121

> <i_m_Source_File_Index>
91

> <i_phase_Input_Structure_Number>
111

> <i_phase_Reference_Structure>
110

> <i_phase_Structure_Number>
111

> <Molecule Name>
155

> <Rotatable Bonds>
5

> <i_f3d_flags>
0

> <b_lp_Chiralities_Consistent>
1

> <r_canvas_IC50_human_P2Y14R,_nM>
39.5

> <r_canvas_pIC50>
7.40340290437354

> <r_epik_Charging_Adjusted_Penalty>
0.00143519162298062

> <r_epik_Ionization_Penalty>
  0.0007

> <r_epik_Ionization_Penalty_Charging>
  0.0007

> <r_epik_Ionization_Penalty_Neutral>
  0.0000

> <r_epik_State_Penalty>
  0.0007

> <r_lp_Energy>
75.353332

> <r_phase_Similarity_to_Reference>
0.930236377505762

> <s_canvas_CHEMBLID>
CHEMBL4205190

> <s_canvas_Compound>
22

> <s_canvas_Paper>
Wen2022

> <s_epik_cmdline>
J2VwaWtfcHl0aG9uJywgJy1waCcsICc3LjAnLCAnLXRuJywgJzgnLCAnLW1hJywgJzUwMCcsICctaW1hZScsICc8aW5maWxlLm1hZT4nLCAnLW9tYWUnLCAnPG91dGZpbGUubWFlPic=

> <s_epik_input>
RkMoRikoRiljMVtjSF1bY0hdYyhbY0hdW2NIXTEpLWMoW2NIXTIpW2NIXVtjSF1jKGMyMyljKFtjSF1jKFtjSF0zKUMoPU8pW09IXSktYzRbY0hdW2NIXWMoW2NIXVtjSF00KVtDQEBIXShbQ0BIXTU2KVtDSDJdW0NASF0oW0NIMl02KVtOSF1DNT1P

> <s_lp_Force_Field>
S-OPLS

> <s_lp_Variant>
155-1

> <s_m_Source_File>
database-aligned.sdf

> <s_m_Source_Path>
/data/matteo/P2Y14-antagonists-piperidineDerivatives-Wen2023/14052024-optimized-alignment

> <s_m_entry_id>
91

> <s_m_entry_name>
database-aligned.91

> <s_m_job_name>
align_ligands_1

> <s_phase_Alignment_Method>
flexible least-squares core

> <s_phase_Alignment_Reason>
stereochemistry change

> <s_phase_Core_SMARTS>
A12A(=A)AA(A1)AA2a3aaa(aa3)-a(aaa4)a(a45)aaa(a5)-a6aaaaa6

$$$$
156
                    3D
 Schrodinger Suite 2023-2.
 58 63  0  0  1  0            999 V2000
   -5.1221   -0.3971    0.7491 F   0  0  0  0  0  0
   -4.4934    0.7462    1.0237 C   0  0  0  0  0  0
   -4.9867    1.6945    0.2264 F   0  0  0  0  0  0
   -4.7415    1.0789    2.2898 F   0  0  0  0  0  0
   -2.9912    0.5996    0.8296 C   0  0  0  0  0  0
   -2.2078    1.7085    0.4495 C   0  0  0  0  0  0
   -2.3592   -0.6420    1.0468 C   0  0  0  0  0  0
   -0.8163    1.5731    0.2815 C   0  0  0  0  0  0
   -0.9670   -0.7722    0.8780 C   0  0  0  0  0  0
   -0.1725    0.3321    0.4928 C   0  0  0  0  0  0
    1.2889    0.1963    0.3188 C   0  0  0  0  0  0
    2.1647    1.2402    0.6910 C   0  0  0  0  0  0
    1.8516   -0.9775   -0.2288 C   0  0  0  0  0  0
    3.5596    1.1212    0.5232 C   0  0  0  0  0  0
    3.2431   -1.1080   -0.3971 C   0  0  0  0  0  0
    4.1178   -0.0636   -0.0191 C   0  0  0  0  0  0
    4.3926    2.1943    0.8950 C   0  0  0  0  0  0
    5.5250   -0.1713   -0.1808 C   0  0  0  0  0  0
    5.7908    2.1066    0.7287 C   0  0  0  0  0  0
    6.1834   -1.3730   -0.7245 C   0  0  0  0  0  0
    6.3388    0.9209    0.1920 C   0  0  0  0  0  0
    6.6819    3.2561    1.1160 C   0  0  0  0  0  0
    6.8521   -1.3204   -1.9654 C   0  0  0  0  0  0
    6.1835   -2.5892   -0.0089 C   0  0  0  0  0  0
    7.9193    3.1366    0.9740 O   0  0  0  0  0  0
    6.1603    4.2997    1.5685 O   0  5  0  0  0  0
    7.5014   -2.4563   -2.4856 C   0  0  0  0  0  0
    6.8308   -3.7277   -0.5258 C   0  0  0  0  0  0
    7.4979   -3.6735   -1.7674 C   0  0  0  0  0  0
    8.1930   -4.9346   -2.2795 C   0  0  1  0  0  0
    8.7240   -4.9043   -3.7439 C   0  0  2  0  0  0
    9.4877   -5.2807   -1.4855 C   0  0  0  0  0  0
    9.0419   -6.2809   -4.1266 N   0  0  0  0  0  0
   10.1388   -4.3442   -3.5563 C   0  0  0  0  0  0
   10.5439   -5.4634   -2.6003 C   0  0  2  0  0  0
   10.1272   -6.6630   -3.4483 C   0  0  0  0  0  0
   10.6940   -7.7526   -3.4781 O   0  0  0  0  0  0
   -2.6697    2.6708    0.2856 H   0  0  0  0  0  0
   -2.9393   -1.5014    1.3491 H   0  0  0  0  0  0
   -0.2432    2.4379   -0.0192 H   0  0  0  0  0  0
   -0.5096   -1.7339    1.0583 H   0  0  0  0  0  0
    1.7634    2.1487    1.1165 H   0  0  0  0  0  0
    1.2130   -1.7922   -0.5368 H   0  0  0  0  0  0
    3.6214   -2.0224   -0.8283 H   0  0  0  0  0  0
    3.9496    3.0909    1.3048 H   0  0  0  0  0  0
    7.4082    0.8349    0.0625 H   0  0  0  0  0  0
    6.8700   -0.3969   -2.5257 H   0  0  0  0  0  0
    5.6843   -2.6493    0.9473 H   0  0  0  0  0  0
    8.0026   -2.3683   -3.4370 H   0  0  0  0  0  0
    6.8190   -4.6479    0.0401 H   0  0  0  0  0  0
    7.4702   -5.7472   -2.1835 H   0  0  0  0  0  0
    8.0921   -4.4007   -4.4755 H   0  0  0  0  0  0
    9.7820   -4.4607   -0.8287 H   0  0  0  0  0  0
    9.3686   -6.1712   -0.8667 H   0  0  0  0  0  0
    8.5095   -6.8391   -4.7784 H   0  0  0  0  0  0
   10.7251   -4.3203   -4.4780 H   0  0  0  0  0  0
   10.1667   -3.3541   -3.0985 H   0  0  0  0  0  0
   11.5854   -5.4639   -2.2782 H   0  0  0  0  0  0
  1  2  1  0  0  0
  2  3  1  0  0  0
  2  4  1  0  0  0
  2  5  1  0  0  0
  5  6  2  0  0  0
  5  7  1  0  0  0
  6  8  1  0  0  0
  6 38  1  0  0  0
  7  9  2  0  0  0
  7 39  1  0  0  0
  8 10  2  0  0  0
  8 40  1  0  0  0
  9 10  1  0  0  0
  9 41  1  0  0  0
 10 11  1  0  0  0
 11 12  2  0  0  0
 11 13  1  0  0  0
 12 14  1  0  0  0
 12 42  1  0  0  0
 13 15  2  0  0  0
 13 43  1  0  0  0
 14 16  1  0  0  0
 14 17  2  0  0  0
 15 16  1  0  0  0
 15 44  1  0  0  0
 16 18  2  0  0  0
 17 19  1  0  0  0
 17 45  1  0  0  0
 18 20  1  0  0  0
 18 21  1  0  0  0
 19 22  1  0  0  0
 19 21  2  0  0  0
 20 23  2  0  0  0
 20 24  1  0  0  0
 21 46  1  0  0  0
 22 25  2  0  0  0
 22 26  1  0  0  0
 23 27  1  0  0  0
 23 47  1  0  0  0
 24 28  2  0  0  0
 24 48  1  0  0  0
 27 29  2  0  0  0
 27 49  1  0  0  0
 28 29  1  0  0  0
 28 50  1  0  0  0
 29 30  1  0  0  0
 30 31  1  0  0  0
 30 32  1  0  0  0
 30 51  1  0  0  0
 31 33  1  0  0  0
 31 34  1  0  0  0
 31 52  1  0  0  0
 32 35  1  0  0  0
 32 53  1  0  0  0
 32 54  1  0  0  0
 33 36  1  0  0  0
 33 55  1  0  0  0
 34 35  1  0  0  0
 34 56  1  0  0  0
 34 57  1  0  0  0
 35 36  1  0  0  0
 35 58  1  0  0  0
 36 37  2  0  0  0
M  CHG  1  26  -1
M  END
> <i_epik_Tot_Q>
-1

> <i_epik_Tot_abs_Q>
1

> <i_lp_mmshare_version>
62121

> <i_m_Source_File_Index>
92

> <i_phase_Input_Structure_Number>
112

> <i_phase_Reference_Structure>
110

> <i_phase_Structure_Number>
112

> <Molecule Name>
156

> <Rotatable Bonds>
5

> <i_f3d_flags>
0

> <b_lp_Chiralities_Consistent>
1

> <r_canvas_IC50_human_P2Y14R,_nM>
37.3

> <r_canvas_pIC50>
7.42829116819131

> <r_epik_Charging_Adjusted_Penalty>
0.00143519162298062

> <r_epik_Ionization_Penalty>
  0.0007

> <r_epik_Ionization_Penalty_Charging>
  0.0007

> <r_epik_Ionization_Penalty_Neutral>
  0.0000

> <r_epik_State_Penalty>
  0.0007

> <r_lp_Energy>
75.995592

> <r_phase_Similarity_to_Reference>
0.950814648985739

> <s_canvas_CHEMBLID>
CHEMBL4204811

> <s_canvas_Compound>
23

> <s_canvas_Paper>
Wen2022

> <s_epik_cmdline>
J2VwaWtfcHl0aG9uJywgJy1waCcsICc3LjAnLCAnLXRuJywgJzgnLCAnLW1hJywgJzUwMCcsICctaW1hZScsICc8aW5maWxlLm1hZT4nLCAnLW9tYWUnLCAnPG91dGZpbGUubWFlPic=

> <s_epik_input>
RkMoRikoRiljMVtjSF1bY0hdYyhbY0hdW2NIXTEpLWMoW2NIXTIpW2NIXVtjSF1jKGMyMyljKFtjSF1jKFtjSF0zKUMoPU8pW09IXSktYzRbY0hdW2NIXWMoW2NIXVtjSF00KVtDQEBIXShbQ0BIXTU2KVtDSDJdW0NASF0oW0NIMl02KUMoPU8pW05IXTU=

> <s_lp_Force_Field>
S-OPLS

> <s_lp_Variant>
156-1

> <s_m_Source_File>
database-aligned.sdf

> <s_m_Source_Path>
/data/matteo/P2Y14-antagonists-piperidineDerivatives-Wen2023/14052024-optimized-alignment

> <s_m_entry_id>
92

> <s_m_entry_name>
database-aligned.92

> <s_m_job_name>
align_ligands_1

> <s_phase_Alignment_Method>
flexible least-squares core

> <s_phase_Alignment_Reason>
stereochemistry change

> <s_phase_Core_SMARTS>
A12[A]AA(A1)A(A2)a3aaa(aa3)-a(aaa4)a(a45)aaa(a5)-a6aaaaa6

$$$$
157
                    3D
 Schrodinger Suite 2023-2.
 58 63  0  0  1  0            999 V2000
   -5.0463   -0.5953    1.1819 F   0  0  0  0  0  0
   -4.4814    0.5790    0.8982 C   0  0  0  0  0  0
   -5.0060    1.0344   -0.2394 F   0  0  0  0  0  0
   -4.7693    1.4361    1.8772 F   0  0  0  0  0  0
   -2.9710    0.4638    0.7538 C   0  0  0  0  0  0
   -2.2206    1.5879    0.3540 C   0  0  0  0  0  0
   -2.3000   -0.7496    1.0144 C   0  0  0  0  0  0
   -0.8223    1.4989    0.2107 C   0  0  0  0  0  0
   -0.9019   -0.8335    0.8685 C   0  0  0  0  0  0
   -0.1405    0.2865    0.4624 C   0  0  0  0  0  0
    1.3250    0.1883    0.3024 C   0  0  0  0  0  0
    2.1759    1.2522    0.6777 C   0  0  0  0  0  0
    1.9154   -0.9761   -0.2353 C   0  0  0  0  0  0
    3.5757    1.1569    0.5290 C   0  0  0  0  0  0
    3.3099   -1.0810   -0.3882 C   0  0  0  0  0  0
    4.1605   -0.0199   -0.0022 C   0  0  0  0  0  0
    4.3891    2.2417    0.9116 C   0  0  0  0  0  0
    5.5707   -0.1080   -0.1432 C   0  0  0  0  0  0
    5.7914    2.1730    0.7663 C   0  0  0  0  0  0
    6.2425   -1.3092   -0.6695 C   0  0  0  0  0  0
    6.3647    0.9957    0.2369 C   0  0  0  0  0  0
    6.6613    3.3327    1.1715 C   0  0  0  0  0  0
    6.8762   -1.2836   -1.9289 C   0  0  0  0  0  0
    6.2707   -2.5060    0.0768 C   0  0  0  0  0  0
    7.8999    3.2423    1.0172 O   0  0  0  0  0  0
    6.1215    4.3544    1.6516 O   0  5  0  0  0  0
    7.5060   -2.4334   -2.4431 C   0  0  0  0  0  0
    6.8993   -3.6575   -0.4335 C   0  0  0  0  0  0
    7.5162   -3.6375   -1.7024 C   0  0  0  0  0  0
    8.1815   -4.9153   -2.2158 C   0  0  2  0  0  0
    9.7181   -4.9728   -1.9849 C   0  0  1  0  0  0
    8.0760   -5.1943   -3.7471 C   0  0  0  0  0  0
   10.1322   -6.3689   -2.1366 N   0  0  0  0  0  0
   10.2656   -4.3933   -3.2928 C   0  0  0  0  0  0
    9.5512   -5.4364   -4.1502 C   0  0  1  0  0  0
   10.0322   -6.6950   -3.4288 C   0  0  0  0  0  0
   10.2686   -7.7789   -3.9569 O   0  0  0  0  0  0
   -2.7196    2.5245    0.1522 H   0  0  0  0  0  0
   -2.8483   -1.6257    1.3276 H   0  0  0  0  0  0
   -0.2739    2.3735   -0.1071 H   0  0  0  0  0  0
   -0.4130   -1.7734    1.0785 H   0  0  0  0  0  0
    1.7513    2.1545    1.0937 H   0  0  0  0  0  0
    1.2963   -1.8046   -0.5463 H   0  0  0  0  0  0
    3.7090   -1.9905   -0.8112 H   0  0  0  0  0  0
    3.9277    3.1318    1.3150 H   0  0  0  0  0  0
    7.4371    0.9232    0.1238 H   0  0  0  0  0  0
    6.8733   -0.3742   -2.5120 H   0  0  0  0  0  0
    5.7989   -2.5436    1.0479 H   0  0  0  0  0  0
    7.9735   -2.3694   -3.4130 H   0  0  0  0  0  0
    6.9034   -4.5612    0.1583 H   0  0  0  0  0  0
    7.7140   -5.7455   -1.6819 H   0  0  0  0  0  0
   10.0762   -4.5093   -1.0651 H   0  0  0  0  0  0
    7.4453   -6.0590   -3.9588 H   0  0  0  0  0  0
    7.6631   -4.3572   -4.3082 H   0  0  0  0  0  0
   10.4194   -6.9745   -1.3813 H   0  0  0  0  0  0
    9.9520   -3.3693   -3.4909 H   0  0  0  0  0  0
   11.3550   -4.4384   -3.3656 H   0  0  0  0  0  0
    9.7667   -5.4068   -5.2186 H   0  0  0  0  0  0
  1  2  1  0  0  0
  2  3  1  0  0  0
  2  4  1  0  0  0
  2  5  1  0  0  0
  5  6  2  0  0  0
  5  7  1  0  0  0
  6  8  1  0  0  0
  6 38  1  0  0  0
  7  9  2  0  0  0
  7 39  1  0  0  0
  8 10  2  0  0  0
  8 40  1  0  0  0
  9 10  1  0  0  0
  9 41  1  0  0  0
 10 11  1  0  0  0
 11 12  2  0  0  0
 11 13  1  0  0  0
 12 14  1  0  0  0
 12 42  1  0  0  0
 13 15  2  0  0  0
 13 43  1  0  0  0
 14 16  1  0  0  0
 14 17  2  0  0  0
 15 16  1  0  0  0
 15 44  1  0  0  0
 16 18  2  0  0  0
 17 19  1  0  0  0
 17 45  1  0  0  0
 18 20  1  0  0  0
 18 21  1  0  0  0
 19 22  1  0  0  0
 19 21  2  0  0  0
 20 23  2  0  0  0
 20 24  1  0  0  0
 21 46  1  0  0  0
 22 25  2  0  0  0
 22 26  1  0  0  0
 23 27  1  0  0  0
 23 47  1  0  0  0
 24 28  2  0  0  0
 24 48  1  0  0  0
 27 29  2  0  0  0
 27 49  1  0  0  0
 28 29  1  0  0  0
 28 50  1  0  0  0
 29 30  1  0  0  0
 30 31  1  0  0  0
 30 32  1  0  0  0
 30 51  1  0  0  0
 31 33  1  0  0  0
 31 34  1  0  0  0
 31 52  1  0  0  0
 32 35  1  0  0  0
 32 53  1  0  0  0
 32 54  1  0  0  0
 33 36  1  0  0  0
 33 55  1  0  0  0
 34 35  1  0  0  0
 34 56  1  0  0  0
 34 57  1  0  0  0
 35 36  1  0  0  0
 35 58  1  0  0  0
 36 37  2  0  0  0
M  CHG  1  26  -1
M  END
> <i_epik_Tot_Q>
-1

> <i_epik_Tot_abs_Q>
1

> <i_lp_mmshare_version>
62121

> <i_m_Source_File_Index>
93

> <i_phase_Input_Structure_Number>
113

> <i_phase_Reference_Structure>
112

> <i_phase_Structure_Number>
113

> <Molecule Name>
157

> <Rotatable Bonds>
5

> <i_f3d_flags>
0

> <b_lp_Chiralities_Consistent>
1

> <r_canvas_IC50_human_P2Y14R,_nM>
58.6

> <r_canvas_pIC50>
7.23210238398191

> <r_epik_Charging_Adjusted_Penalty>
0.00143519162298062

> <r_epik_Ionization_Penalty>
  0.0007

> <r_epik_Ionization_Penalty_Charging>
  0.0007

> <r_epik_Ionization_Penalty_Neutral>
  0.0000

> <r_epik_State_Penalty>
  0.0007

> <r_lp_Energy>
75.994094

> <r_phase_Similarity_to_Reference>
0.954908645147855

> <s_canvas_CHEMBLID>
CHEMBL4204741

> <s_canvas_Compound>
24

> <s_canvas_Paper>
Wen2022

> <s_epik_cmdline>
J2VwaWtfcHl0aG9uJywgJy1waCcsICc3LjAnLCAnLXRuJywgJzgnLCAnLW1hJywgJzUwMCcsICctaW1hZScsICc8aW5maWxlLm1hZT4nLCAnLW9tYWUnLCAnPG91dGZpbGUubWFlPic=

> <s_epik_input>
RkMoRikoRiljMVtjSF1bY0hdYyhbY0hdW2NIXTEpLWMoW2NIXTIpW2NIXVtjSF1jKGMyMyljKFtjSF1jKFtjSF0zKUMoPU8pW09IXSktYzRbY0hdW2NIXWMoW2NIXVtjSF00KVtDQEhdKFtDQEBIXTU2KVtDSDJdW0NAQEhdKFtDSDJdNilDKD1PKVtOSF01

> <s_lp_Force_Field>
S-OPLS

> <s_lp_Variant>
157-1

> <s_m_Source_File>
database-aligned.sdf

> <s_m_Source_Path>
/data/matteo/P2Y14-antagonists-piperidineDerivatives-Wen2023/14052024-optimized-alignment

> <s_m_entry_id>
93

> <s_m_entry_name>
database-aligned.93

> <s_m_job_name>
align_ligands_1

> <s_phase_Alignment_Method>
flexible least-squares core

> <s_phase_Alignment_Reason>
stereochemistry change

> <s_phase_Core_SMARTS>
A12A(=A)AA(A1)A(A2)a3aaa(aa3)-a(aaa4)a(a45)aaa(a5)-a6aaaaa6

$$$$
158
                    3D
 Schrodinger Suite 2023-2.
 65 70  0  0  1  0            999 V2000
   10.9898   -7.8071   -4.3743 S   0  0  0  0  0  0
   11.1706   -8.9714   -3.4937 O   0  0  0  0  0  0
   10.4616   -7.9874   -5.7351 O   0  0  0  0  0  0
    9.9527   -6.6853   -3.5551 N   0  0  2  0  0  0
   12.5914   -6.9074   -4.4895 C   0  0  0  0  0  0
    9.4979   -5.4589   -4.2093 C   0  0  1  0  0  0
   10.1008   -6.4281   -2.2522 C   0  0  0  0  0  0
    8.0278   -5.1851   -3.7971 C   0  0  0  0  0  0
   10.2318   -4.4106   -3.3724 C   0  0  0  0  0  0
    9.6931   -4.9673   -2.0528 C   0  0  1  0  0  0
    8.1568   -4.9122   -2.2670 C   0  0  1  0  0  0
    7.4957   -3.6386   -1.7386 C   0  0  0  0  0  0
    7.4975   -2.4247   -2.4629 C   0  0  0  0  0  0
    6.8718   -3.6722   -0.4733 C   0  0  0  0  0  0
    6.8718   -1.2781   -1.9364 C   0  0  0  0  0  0
    6.2476   -2.5238    0.0492 C   0  0  0  0  0  0
    6.2309   -1.3168   -0.6809 C   0  0  0  0  0  0
    5.5649   -0.1182   -0.1411 C   0  0  0  0  0  0
    4.1553   -0.0249    0.0046 C   0  0  0  0  0  0
    6.3647    0.9783    0.2477 C   0  0  0  0  0  0
    3.5772    1.1492    0.5492 C   0  0  0  0  0  0
    3.2987   -1.0778   -0.3903 C   0  0  0  0  0  0
    5.7980    2.1529    0.7906 C   0  0  0  0  0  0
    2.1781    1.2498    0.7017 C   0  0  0  0  0  0
    4.3965    2.2263    0.9408 C   0  0  0  0  0  0
    1.9049   -0.9675   -0.2340 C   0  0  0  0  0  0
    6.6730    3.3062    1.2025 C   0  0  0  0  0  0
    1.3213    0.1946    0.3158 C   0  0  0  0  0  0
    7.9116    3.2082    1.0540 O   0  0  0  0  0  0
    6.1375    4.3309    1.6813 O   0  5  0  0  0  0
   -0.1435    0.3005    0.4764 C   0  0  0  0  0  0
   -0.8173    1.5194    0.2345 C   0  0  0  0  0  0
   -0.9123   -0.8180    0.8722 C   0  0  0  0  0  0
   -2.2150    1.6163    0.3778 C   0  0  0  0  0  0
   -2.3100   -0.7259    1.0182 C   0  0  0  0  0  0
   -2.9730    0.4939    0.7677 C   0  0  0  0  0  0
   -4.4821    0.6211    0.9143 C   0  0  0  0  0  0
   -5.0481   -0.5306    1.2767 F   0  0  0  0  0  0
   -5.0116    1.0050   -0.2469 F   0  0  0  0  0  0
   -4.7632    1.5396    1.8383 F   0  0  0  0  0  0
   13.3185   -7.5335   -5.0060 H   0  0  0  0  0  0
   12.9620   -6.6800   -3.4905 H   0  0  0  0  0  0
   12.4532   -5.9822   -5.0480 H   0  0  0  0  0  0
    9.6932   -5.4377   -5.2817 H   0  0  0  0  0  0
    9.5096   -7.1237   -1.6554 H   0  0  0  0  0  0
   11.1431   -6.5633   -1.9620 H   0  0  0  0  0  0
    7.6330   -4.3350   -4.3516 H   0  0  0  0  0  0
    7.3789   -6.0362   -4.0072 H   0  0  0  0  0  0
   11.3184   -4.4759   -3.4508 H   0  0  0  0  0  0
    9.9327   -3.3849   -3.5839 H   0  0  0  0  0  0
   10.0587   -4.5113   -1.1321 H   0  0  0  0  0  0
    7.6918   -5.7430   -1.7334 H   0  0  0  0  0  0
    7.9708   -2.3521   -3.4292 H   0  0  0  0  0  0
    6.8661   -4.5842    0.1057 H   0  0  0  0  0  0
    6.8772   -0.3609   -2.5073 H   0  0  0  0  0  0
    5.7710   -2.5719    1.0175 H   0  0  0  0  0  0
    7.4365    0.9024    0.1304 H   0  0  0  0  0  0
    3.6926   -1.9848   -0.8233 H   0  0  0  0  0  0
    1.7585    2.1496    1.1278 H   0  0  0  0  0  0
    3.9400    3.1144    1.3544 H   0  0  0  0  0  0
    1.2807   -1.7895   -0.5522 H   0  0  0  0  0  0
   -0.2631    2.3933   -0.0753 H   0  0  0  0  0  0
   -0.4301   -1.7631    1.0742 H   0  0  0  0  0  0
   -2.7080    2.5576    0.1836 H   0  0  0  0  0  0
   -2.8649   -1.6011    1.3225 H   0  0  0  0  0  0
  1  2  2  0  0  0
  1  3  2  0  0  0
  1  4  1  0  0  0
  1  5  1  0  0  0
  4  6  1  0  0  0
  4  7  1  0  0  0
  5 41  1  0  0  0
  5 42  1  0  0  0
  5 43  1  0  0  0
  6  8  1  0  0  0
  6  9  1  0  0  0
  6 44  1  0  0  0
  7 10  1  0  0  0
  7 45  1  0  0  0
  7 46  1  0  0  0
  8 11  1  0  0  0
  8 47  1  0  0  0
  8 48  1  0  0  0
  9 10  1  0  0  0
  9 49  1  0  0  0
  9 50  1  0  0  0
 10 11  1  0  0  0
 10 51  1  0  0  0
 11 12  1  0  0  0
 11 52  1  0  0  0
 12 13  2  0  0  0
 12 14  1  0  0  0
 13 15  1  0  0  0
 13 53  1  0  0  0
 14 16  2  0  0  0
 14 54  1  0  0  0
 15 17  2  0  0  0
 15 55  1  0  0  0
 16 17  1  0  0  0
 16 56  1  0  0  0
 17 18  1  0  0  0
 18 19  1  0  0  0
 18 20  2  0  0  0
 19 21  1  0  0  0
 19 22  2  0  0  0
 20 23  1  0  0  0
 20 57  1  0  0  0
 21 24  2  0  0  0
 21 25  1  0  0  0
 22 26  1  0  0  0
 22 58  1  0  0  0
 23 27  1  0  0  0
 23 25  2  0  0  0
 24 28  1  0  0  0
 24 59  1  0  0  0
 25 60  1  0  0  0
 26 28  2  0  0  0
 26 61  1  0  0  0
 27 29  2  0  0  0
 27 30  1  0  0  0
 28 31  1  0  0  0
 31 32  2  0  0  0
 31 33  1  0  0  0
 32 34  1  0  0  0
 32 62  1  0  0  0
 33 35  2  0  0  0
 33 63  1  0  0  0
 34 36  2  0  0  0
 34 64  1  0  0  0
 35 36  1  0  0  0
 35 65  1  0  0  0
 36 37  1  0  0  0
 37 38  1  0  0  0
 37 39  1  0  0  0
 37 40  1  0  0  0
M  CHG  1  30  -1
M  END
> <i_epik_Tot_Q>
-1

> <i_epik_Tot_abs_Q>
1

> <i_lp_mmshare_version>
62121

> <i_m_Source_File_Index>
94

> <i_phase_Input_Structure_Number>
114

> <i_phase_Reference_Structure>
110

> <i_phase_Structure_Number>
114

> <Molecule Name>
158

> <Rotatable Bonds>
5

> <i_f3d_flags>
0

> <b_lp_Chiralities_Consistent>
1

> <r_canvas_IC50_human_P2Y14R,_nM>
497

> <r_canvas_pIC50>
6.30364361126667

> <r_epik_Charging_Adjusted_Penalty>
0.00143519162298062

> <r_epik_Ionization_Penalty>
  0.0007

> <r_epik_Ionization_Penalty_Charging>
  0.0007

> <r_epik_Ionization_Penalty_Neutral>
  0.0000

> <r_epik_State_Penalty>
  0.0007

> <r_lp_Energy>
80.477145

> <r_phase_Similarity_to_Reference>
0.935837659377789

> <s_canvas_CHEMBLID>
CHEMBL4204678

> <s_canvas_Compound>
25

> <s_canvas_Paper>
Wen2022

> <s_epik_cmdline>
J2VwaWtfcHl0aG9uJywgJy1waCcsICc3LjAnLCAnLXRuJywgJzgnLCAnLW1hJywgJzUwMCcsICctaW1hZScsICc8aW5maWxlLm1hZT4nLCAnLW9tYWUnLCAnPG91dGZpbGUubWFlPic=

> <s_epik_input>
Tz1TKD1PKShbQ0gzXSlOKFtDQEBIXTEyKVtDSDJdW0NAQEhdKFtDSDJdMilbQ0BIXShbQ0gyXTEpYzNbY0hdW2NIXWMoW2NIXVtjSF0zKS1jNFtjSF1jKEMoPU8pW09IXSlbY0hdYyhjNDUpW2NIXWMoW2NIXVtjSF01KS1jNltjSF1bY0hdYyhDKEYpKEYpRilbY0hdW2NIXTY=

> <s_lp_Force_Field>
S-OPLS

> <s_lp_Variant>
158-1

> <s_m_Source_File>
database-aligned.sdf

> <s_m_Source_Path>
/data/matteo/P2Y14-antagonists-piperidineDerivatives-Wen2023/14052024-optimized-alignment

> <s_m_entry_id>
94

> <s_m_entry_name>
database-aligned.94

> <s_m_job_name>
align_ligands_1

> <s_phase_Alignment_Method>
snapped core

> <s_phase_Alignment_Reason>


> <s_phase_Core_SMARTS>
A12[A]AA(A1)A(A2)a3aaa(aa3)-a(aaa4)a(a45)aaa(a5)-a6aaaaa6

$$$$
159
                    3D
 Schrodinger Suite 2023-2.
 64 69  0  0  1  0            999 V2000
   -5.1083   -0.3431    1.1906 F   0  0  0  0  0  0
   -4.4751    0.8304    1.1791 C   0  0  0  0  0  0
   -4.9928    1.5753    0.2018 F   0  0  0  0  0  0
   -4.6876    1.4420    2.3437 F   0  0  0  0  0  0
   -2.9780    0.6582    0.9687 C   0  0  0  0  0  0
   -2.1898    1.7642    0.5916 C   0  0  0  0  0  0
   -2.3552   -0.5932    1.1582 C   0  0  0  0  0  0
   -0.8025    1.6186    0.3984 C   0  0  0  0  0  0
   -0.9677   -0.7342    0.9619 C   0  0  0  0  0  0
   -0.1691    0.3675    0.5783 C   0  0  0  0  0  0
    1.2857    0.2149    0.3701 C   0  0  0  0  0  0
    2.1874    1.2272    0.7664 C   0  0  0  0  0  0
    1.8148   -0.9455   -0.2364 C   0  0  0  0  0  0
    3.5762    1.0908    0.5627 C   0  0  0  0  0  0
    3.1994   -1.0924   -0.4429 C   0  0  0  0  0  0
    4.1002   -0.0788   -0.0432 C   0  0  0  0  0  0
    4.4378    2.1310    0.9617 C   0  0  0  0  0  0
    5.5005   -0.2028   -0.2446 C   0  0  0  0  0  0
    5.8301    2.0257    0.7589 C   0  0  0  0  0  0
    6.1215   -1.3876   -0.8627 C   0  0  0  0  0  0
    6.3435    0.8561    0.1569 C   0  0  0  0  0  0
    6.7516    3.1408    1.1747 C   0  0  0  0  0  0
    6.1536   -2.6266   -0.1911 C   0  0  0  0  0  0
    6.7119   -1.2993   -2.1390 C   0  0  0  0  0  0
    7.9819    3.0090    0.9883 O   0  0  0  0  0  0
    6.2615    4.1688    1.6933 O   0  5  0  0  0  0
    6.7664   -3.7493   -0.7796 C   0  0  0  0  0  0
    7.3240   -2.4200   -2.7312 C   0  0  0  0  0  0
    7.3793   -3.6613   -2.0521 C   0  0  0  0  0  0
    8.0335   -4.9009   -2.6887 C   0  0  1  0  0  0
    7.0110   -5.6883   -3.2677 O   0  0  0  0  0  0
    9.0395   -4.5319   -3.8309 C   0  0  0  0  0  0
    8.7470   -5.7862   -1.6125 C   0  0  0  0  0  0
   10.0937   -5.6208   -4.1500 C   0  0  1  0  0  0
    9.8378   -6.7371   -2.1658 C   0  0  2  0  0  0
   10.8109   -5.9283   -2.9076 N   0  3  0  0  0  0
    9.4851   -6.9732   -4.5561 C   0  0  0  0  0  0
    9.3151   -7.7244   -3.2227 C   0  0  0  0  0  0
   -2.6491    2.7312    0.4483 H   0  0  0  0  0  0
   -2.9347   -1.4536    1.4575 H   0  0  0  0  0  0
   -0.2251    2.4814    0.1001 H   0  0  0  0  0  0
   -0.5158   -1.7028    1.1174 H   0  0  0  0  0  0
    1.8106    2.1235    1.2376 H   0  0  0  0  0  0
    1.1547   -1.7360   -0.5616 H   0  0  0  0  0  0
    3.5521   -1.9947   -0.9190 H   0  0  0  0  0  0
    4.0212    3.0162    1.4209 H   0  0  0  0  0  0
    7.4077    0.7570   -0.0029 H   0  0  0  0  0  0
    5.7019   -2.7185    0.7860 H   0  0  0  0  0  0
    6.6926   -0.3607   -2.6738 H   0  0  0  0  0  0
    6.7543   -4.6808   -0.2349 H   0  0  0  0  0  0
    7.7444   -2.2997   -3.7174 H   0  0  0  0  0  0
    6.5643   -5.1698   -3.9197 H   0  0  0  0  0  0
    8.5079   -4.2431   -4.7389 H   0  0  0  0  0  0
    9.6093   -3.6526   -3.5264 H   0  0  0  0  0  0
    9.2438   -5.1289   -0.8967 H   0  0  0  0  0  0
    8.0208   -6.3579   -1.0331 H   0  0  0  0  0  0
   10.7866   -5.2559   -4.9087 H   0  0  0  0  0  0
   10.3264   -7.2606   -1.3435 H   0  0  0  0  0  0
   11.6253   -6.4879   -3.1173 H   0  0  0  0  0  0
    8.5514   -6.8656   -5.1085 H   0  0  0  0  0  0
   10.1775   -7.5195   -5.1981 H   0  0  0  0  0  0
    9.9280   -8.6267   -3.2306 H   0  0  0  0  0  0
    8.2868   -8.0352   -3.0354 H   0  0  0  0  0  0
   11.0731   -5.0934   -2.4034 H   0  0  0  0  0  0
  1  2  1  0  0  0
  2  3  1  0  0  0
  2  4  1  0  0  0
  2  5  1  0  0  0
  5  6  2  0  0  0
  5  7  1  0  0  0
  6  8  1  0  0  0
  6 39  1  0  0  0
  7  9  2  0  0  0
  7 40  1  0  0  0
  8 10  2  0  0  0
  8 41  1  0  0  0
  9 10  1  0  0  0
  9 42  1  0  0  0
 10 11  1  0  0  0
 11 12  2  0  0  0
 11 13  1  0  0  0
 12 14  1  0  0  0
 12 43  1  0  0  0
 13 15  2  0  0  0
 13 44  1  0  0  0
 14 16  1  0  0  0
 14 17  2  0  0  0
 15 16  1  0  0  0
 15 45  1  0  0  0
 16 18  2  0  0  0
 17 19  1  0  0  0
 17 46  1  0  0  0
 18 20  1  0  0  0
 18 21  1  0  0  0
 19 22  1  0  0  0
 19 21  2  0  0  0
 20 23  2  0  0  0
 20 24  1  0  0  0
 21 47  1  0  0  0
 22 25  2  0  0  0
 22 26  1  0  0  0
 23 27  1  0  0  0
 23 48  1  0  0  0
 24 28  2  0  0  0
 24 49  1  0  0  0
 27 29  2  0  0  0
 27 50  1  0  0  0
 28 29  1  0  0  0
 28 51  1  0  0  0
 29 30  1  0  0  0
 30 31  1  0  0  0
 30 32  1  0  0  0
 30 33  1  0  0  0
 31 52  1  0  0  0
 32 34  1  0  0  0
 32 53  1  0  0  0
 32 54  1  0  0  0
 33 35  1  0  0  0
 33 55  1  0  0  0
 33 56  1  0  0  0
 34 36  1  0  0  0
 34 37  1  0  0  0
 34 57  1  0  0  0
 35 38  1  0  0  0
 35 36  1  0  0  0
 35 58  1  0  0  0
 36 59  1  0  0  0
 36 64  1  0  0  0
 37 38  1  0  0  0
 37 60  1  0  0  0
 37 61  1  0  0  0
 38 62  1  0  0  0
 38 63  1  0  0  0
M  CHG  2  26  -1  36   1
M  END
> <i_epik_Tot_Q>
0

> <i_epik_Tot_abs_Q>
2

> <i_lp_mmshare_version>
62121

> <i_m_Source_File_Index>
95

> <i_phase_Input_Structure_Number>
115

> <i_phase_Reference_Structure>
116

> <i_phase_Structure_Number>
115

> <Molecule Name>
159

> <Rotatable Bonds>
5

> <i_f3d_flags>
0

> <b_lp_Chiralities_Consistent>
1

> <r_canvas_IC50_human_P2Y14R,_nM>
117

> <r_canvas_pIC50>
6.93181413825384

> <r_epik_Charging_Adjusted_Penalty>
0.00165014305123062

> <r_epik_Ionization_Penalty>
  0.0009

> <r_epik_Ionization_Penalty_Charging>
  0.0009

> <r_epik_Ionization_Penalty_Neutral>
  0.0000

> <r_epik_State_Penalty>
  0.0007

> <r_lp_Energy>
73.861275

> <r_phase_Similarity_to_Reference>
0.769497977516739

> <s_canvas_CHEMBLID>
CHEMBL4204323

> <s_canvas_Compound>
26

> <s_canvas_Paper>
Wen2022

> <s_epik_cmdline>
J2VwaWtfcHl0aG9uJywgJy1waCcsICc3LjAnLCAnLXRuJywgJzgnLCAnLW1hJywgJzUwMCcsICctaW1hZScsICc8aW5maWxlLm1hZT4nLCAnLW9tYWUnLCAnPG91dGZpbGUubWFlPic=

> <s_epik_input>
RkMoRikoRiljMVtjSF1bY0hdYyhbY0hdW2NIXTEpLWMoW2NIXTIpW2NIXVtjSF1jKGMyMyljKFtjSF1jKFtjSF0zKUMoPU8pW09IXSktYzRbY0hdW2NIXWMoW2NIXVtjSF00KVtDQEBdKFtPSF0pKFtDSDJdW0NAQEhdNTYpW0NIMl1bQ0BIXShbTkhdNSlbQ0gyXVtDSDJdNg==

> <s_lp_Force_Field>
S-OPLS

> <s_lp_Variant>
159-1

> <s_m_Source_File>
database-aligned.sdf

> <s_m_Source_Path>
/data/matteo/P2Y14-antagonists-piperidineDerivatives-Wen2023/14052024-optimized-alignment

> <s_m_entry_id>
95

> <s_m_entry_name>
database-aligned.95

> <s_m_job_name>
align_ligands_1

> <s_phase_Alignment_Method>
flexible least-squares core

> <s_phase_Alignment_Reason>
distorted bond in snapped structure

> <s_phase_Core_SMARTS>
a1aaaaa1-a(a2)aaa(a23)a(aaa3)-a4aaa(aa4)A5AA[A]AA5

$$$$
162
                    3D
 Schrodinger Suite 2023-2.
 77 83  0  0  1  0            999 V2000
   -5.0657   -0.6528    1.0639 F   0  0  0  0  0  0
   -4.4835    0.5461    1.1084 C   0  0  0  0  0  0
   -5.0337    1.3126    0.1663 F   0  0  0  0  0  0
   -4.7213    1.0929    2.3001 F   0  0  0  0  0  0
   -2.9805    0.4435    0.8954 C   0  0  0  0  0  0
   -2.2454    1.5776    0.4941 C   0  0  0  0  0  0
   -2.2992   -0.7723    1.1122 C   0  0  0  0  0  0
   -0.8521    1.4946    0.3065 C   0  0  0  0  0  0
   -0.9062   -0.8510    0.9207 C   0  0  0  0  0  0
   -0.1610    0.2796    0.5158 C   0  0  0  0  0  0
    1.3001    0.1930    0.3226 C   0  0  0  0  0  0
    2.1524    1.2383    0.7416 C   0  0  0  0  0  0
    1.8847   -0.9390   -0.2850 C   0  0  0  0  0  0
    3.5501    1.1548    0.5712 C   0  0  0  0  0  0
    3.2777   -1.0307   -0.4622 C   0  0  0  0  0  0
    4.1320    0.0089   -0.0274 C   0  0  0  0  0  0
    4.3632    2.2211    1.0016 C   0  0  0  0  0  0
    5.5422   -0.0679   -0.1843 C   0  0  0  0  0  0
    5.7638    2.1649    0.8405 C   0  0  0  0  0  0
    6.2189   -1.2368   -0.7759 C   0  0  0  0  0  0
    6.3353    1.0178    0.2468 C   0  0  0  0  0  0
    6.6332    3.3058    1.2965 C   0  0  0  0  0  0
    6.9102   -1.1235   -1.9992 C   0  0  0  0  0  0
    6.1956   -2.4906   -0.1313 C   0  0  0  0  0  0
    7.8720    3.2207    1.1421 O   0  0  0  0  0  0
    6.0930    4.3073    1.8173 O   0  5  0  0  0  0
    7.5479   -2.2386   -2.5763 C   0  0  0  0  0  0
    6.8300   -3.6077   -0.7058 C   0  0  0  0  0  0
    7.5223   -3.4998   -1.9335 C   0  0  0  0  0  0
    8.1668   -4.7603   -2.5405 C   0  0  1  0  0  0
    7.1322   -5.6464   -2.9343 O   0  0  0  0  0  0
    9.1677   -4.5137   -3.6951 C   0  0  2  0  0  0
    9.1681   -5.4314   -1.5741 C   0  0  1  0  0  0
    9.5605   -5.8453   -4.3903 C   0  0  0  0  0  0
   10.3949   -3.8857   -3.0017 C   0  0  0  0  0  0
    9.5748   -6.8461   -2.0682 C   0  0  0  0  0  0
   10.3736   -4.4725   -1.5796 C   0  0  0  0  0  0
   10.1128   -6.8814   -3.4645 N   0  3  2  0  0  0
   11.5877   -7.0519   -3.5607 C   0  0  0  0  0  0
   12.0343   -8.4211   -3.0781 C   0  0  0  0  0  0
   12.7147   -8.5596   -1.8494 C   0  0  0  0  0  0
   11.7749   -9.5634   -3.8646 C   0  0  0  0  0  0
   13.1279   -9.8323   -1.4093 C   0  0  0  0  0  0
   12.1873  -10.8357   -3.4233 C   0  0  0  0  0  0
   12.8638  -10.9704   -2.1957 C   0  0  0  0  0  0
   -2.7495    2.5185    0.3296 H   0  0  0  0  0  0
   -2.8385   -1.6522    1.4306 H   0  0  0  0  0  0
   -0.3138    2.3769   -0.0075 H   0  0  0  0  0  0
   -0.4076   -1.7924    1.0994 H   0  0  0  0  0  0
    1.7298    2.1149    1.2108 H   0  0  0  0  0  0
    1.2614   -1.7511   -0.6291 H   0  0  0  0  0  0
    3.6721   -1.9140   -0.9407 H   0  0  0  0  0  0
    3.9027    3.0870    1.4557 H   0  0  0  0  0  0
    7.4069    0.9557    0.1221 H   0  0  0  0  0  0
    6.9440   -0.1716   -2.5091 H   0  0  0  0  0  0
    5.6734   -2.6009    0.8080 H   0  0  0  0  0  0
    8.0464   -2.0945   -3.5211 H   0  0  0  0  0  0
    6.7697   -4.5571   -0.1948 H   0  0  0  0  0  0
    6.5988   -5.8398   -2.1782 H   0  0  0  0  0  0
    8.7612   -3.8617   -4.4673 H   0  0  0  0  0  0
    8.7669   -5.5364   -0.5662 H   0  0  0  0  0  0
    8.6834   -6.2764   -4.8736 H   0  0  0  0  0  0
   10.2531   -5.6438   -5.2082 H   0  0  0  0  0  0
   11.3248   -4.0987   -3.5294 H   0  0  0  0  0  0
   10.3038   -2.8004   -2.9548 H   0  0  0  0  0  0
   10.2792   -7.2878   -1.3644 H   0  0  0  0  0  0
    8.7044   -7.5018   -2.0397 H   0  0  0  0  0  0
   10.2175   -3.6715   -0.8556 H   0  0  0  0  0  0
   11.3061   -4.9668   -1.3077 H   0  0  0  0  0  0
   11.9083   -6.9648   -4.5995 H   0  0  0  0  0  0
   12.1105   -6.2695   -3.0126 H   0  0  0  0  0  0
   12.9215   -7.6916   -1.2404 H   0  0  0  0  0  0
   11.2581   -9.4670   -4.8084 H   0  0  0  0  0  0
   13.6487   -9.9359   -0.4687 H   0  0  0  0  0  0
   11.9863  -11.7085   -4.0270 H   0  0  0  0  0  0
   13.1816  -11.9461   -1.8584 H   0  0  0  0  0  0
    9.7696   -7.7520   -3.8446 H   0  0  0  0  0  0
  1  2  1  0  0  0
  2  3  1  0  0  0
  2  4  1  0  0  0
  2  5  1  0  0  0
  5  6  2  0  0  0
  5  7  1  0  0  0
  6  8  1  0  0  0
  6 46  1  0  0  0
  7  9  2  0  0  0
  7 47  1  0  0  0
  8 10  2  0  0  0
  8 48  1  0  0  0
  9 10  1  0  0  0
  9 49  1  0  0  0
 10 11  1  0  0  0
 11 12  2  0  0  0
 11 13  1  0  0  0
 12 14  1  0  0  0
 12 50  1  0  0  0
 13 15  2  0  0  0
 13 51  1  0  0  0
 14 16  1  0  0  0
 14 17  2  0  0  0
 15 16  1  0  0  0
 15 52  1  0  0  0
 16 18  2  0  0  0
 17 19  1  0  0  0
 17 53  1  0  0  0
 18 20  1  0  0  0
 18 21  1  0  0  0
 19 22  1  0  0  0
 19 21  2  0  0  0
 20 23  2  0  0  0
 20 24  1  0  0  0
 21 54  1  0  0  0
 22 25  2  0  0  0
 22 26  1  0  0  0
 23 27  1  0  0  0
 23 55  1  0  0  0
 24 28  2  0  0  0
 24 56  1  0  0  0
 27 29  2  0  0  0
 27 57  1  0  0  0
 28 29  1  0  0  0
 28 58  1  0  0  0
 29 30  1  0  0  0
 30 31  1  0  0  0
 30 32  1  0  0  0
 30 33  1  0  0  0
 31 59  1  0  0  0
 32 34  1  0  0  0
 32 35  1  0  0  0
 32 60  1  0  0  0
 33 36  1  0  0  0
 33 37  1  0  0  0
 33 61  1  0  0  0
 34 38  1  0  0  0
 34 62  1  0  0  0
 34 63  1  0  0  0
 35 37  1  0  0  0
 35 64  1  0  0  0
 35 65  1  0  0  0
 36 38  1  0  0  0
 36 66  1  0  0  0
 36 67  1  0  0  0
 37 68  1  0  0  0
 37 69  1  0  0  0
 38 39  1  0  0  0
 38 77  1  0  0  0
 39 40  1  0  0  0
 39 70  1  0  0  0
 39 71  1  0  0  0
 40 41  2  0  0  0
 40 42  1  0  0  0
 41 43  1  0  0  0
 41 72  1  0  0  0
 42 44  2  0  0  0
 42 73  1  0  0  0
 43 45  2  0  0  0
 43 74  1  0  0  0
 44 45  1  0  0  0
 44 75  1  0  0  0
 45 76  1  0  0  0
M  CHG  2  26  -1  38   1
M  END
> <i_epik_Tot_Q>
0

> <i_epik_Tot_abs_Q>
2

> <i_lp_mmshare_version>
62121

> <i_m_Source_File_Index>
96

> <i_phase_Input_Structure_Number>
116

> <i_phase_Reference_Structure>
64

> <i_phase_Structure_Number>
116

> <Molecule Name>
162

> <Rotatable Bonds>
7

> <i_f3d_flags>
0

> <b_lp_Chiralities_Consistent>
1

> <r_canvas_IC50_human_P2Y14R,_nM>
466

> <r_canvas_pIC50>
6.33161408331

> <r_epik_Charging_Adjusted_Penalty>
0.0695926512656782

> <r_epik_Ionization_Penalty>
  0.0352

> <r_epik_Ionization_Penalty_Charging>
  0.0352

> <r_epik_Ionization_Penalty_Neutral>
  0.0000

> <r_epik_State_Penalty>
  0.0344

> <r_lp_Energy>
102.398084

> <r_phase_Similarity_to_Reference>
0.778561519107502

> <s_canvas_CHEMBLID>
CID 164585626

> <s_canvas_Compound>
29

> <s_canvas_Paper>
Wen2022

> <s_epik_cmdline>
J2VwaWtfcHl0aG9uJywgJy1waCcsICc3LjAnLCAnLXRuJywgJzgnLCAnLW1hJywgJzUwMCcsICctaW1hZScsICc8aW5maWxlLm1hZT4nLCAnLW9tYWUnLCAnPG91dGZpbGUubWFlPic=

> <s_epik_input>
RkMoRikoRiljMVtjSF1bY0hdYyhbY0hdW2NIXTEpLWMoW2NIXTIpW2NIXVtjSF1jKGMyMyljKFtjSF1jKFtjSF0zKUMoPU8pW09IXSktYzRbY0hdW2NIXWMoW2NIXVtjSF00KVtDQEBdKFtPSF0pKFtDQEhdNTYpW0NASF0oW0NIMl1bQ0gyXTYpW0NIMl1OKFtDSDJdNSlbQ0gyXWM3W2NIXVtjSF1bY0hdW2NIXVtjSF03

> <s_lp_Force_Field>
S-OPLS

> <s_lp_Variant>
162-1

> <s_m_Source_File>
database-aligned.sdf

> <s_m_Source_Path>
/data/matteo/P2Y14-antagonists-piperidineDerivatives-Wen2023/14052024-optimized-alignment

> <s_m_entry_id>
96

> <s_m_entry_name>
database-aligned.96

> <s_m_job_name>
align_ligands_1

> <s_phase_Alignment_Method>
flexible least-squares core

> <s_phase_Alignment_Reason>
distorted bond in snapped structure

> <s_phase_Core_SMARTS>
a1aaaaa1-a(a2)aaa(a23)a(aaa3)-a4aaa(aa4)A5AA[A]AA5

$$$$
163
                    3D
 Schrodinger Suite 2023-2.
 64 69  0  0  1  0            999 V2000
   -5.0261    1.4324    0.2838 F   0  0  0  0  0  0
   -4.4843    0.5364    1.1094 C   0  0  0  0  0  0
   -4.7261    0.9091    2.3654 F   0  0  0  0  0  0
   -5.0718   -0.6406    0.8904 F   0  0  0  0  0  0
   -2.9805    0.4435    0.8954 C   0  0  0  0  0  0
   -2.2992   -0.7723    1.1122 C   0  0  0  0  0  0
   -2.2454    1.5776    0.4941 C   0  0  0  0  0  0
   -0.9062   -0.8510    0.9207 C   0  0  0  0  0  0
   -0.8521    1.4946    0.3065 C   0  0  0  0  0  0
   -0.1610    0.2796    0.5158 C   0  0  0  0  0  0
    1.3001    0.1930    0.3226 C   0  0  0  0  0  0
    2.1524    1.2383    0.7416 C   0  0  0  0  0  0
    1.8847   -0.9390   -0.2850 C   0  0  0  0  0  0
    3.5501    1.1548    0.5712 C   0  0  0  0  0  0
    3.2777   -1.0307   -0.4622 C   0  0  0  0  0  0
    4.1320    0.0089   -0.0274 C   0  0  0  0  0  0
    4.3632    2.2211    1.0016 C   0  0  0  0  0  0
    5.5422   -0.0679   -0.1843 C   0  0  0  0  0  0
    5.7637    2.1649    0.8405 C   0  0  0  0  0  0
    6.2189   -1.2368   -0.7759 C   0  0  0  0  0  0
    6.3353    1.0178    0.2468 C   0  0  0  0  0  0
    6.6335    3.3065    1.2938 C   0  0  0  0  0  0
    6.9102   -1.1235   -1.9992 C   0  0  0  0  0  0
    6.1956   -2.4906   -0.1313 C   0  0  0  0  0  0
    7.8718    3.2234    1.1339 O   0  0  0  0  0  0
    6.0939    4.3069    1.8173 O   0  5  0  0  0  0
    7.5479   -2.2386   -2.5763 C   0  0  0  0  0  0
    6.8300   -3.6077   -0.7058 C   0  0  0  0  0  0
    7.5223   -3.4998   -1.9335 C   0  0  0  0  0  0
    8.1668   -4.7603   -2.5405 C   0  0  1  0  0  0
    7.1322   -5.6462   -2.9349 O   0  0  0  0  0  0
    9.1677   -4.5137   -3.6951 C   0  0  2  0  0  0
    9.1681   -5.4314   -1.5741 C   0  0  1  0  0  0
    9.5605   -5.8453   -4.3903 C   0  0  0  0  0  0
   10.3949   -3.8857   -3.0017 C   0  0  0  0  0  0
    9.5748   -6.8461   -2.0682 C   0  0  0  0  0  0
   10.3736   -4.4725   -1.5796 C   0  0  0  0  0  0
   10.1128   -6.8814   -3.4645 N   0  3  0  0  0  0
   -2.8416   -1.6514    1.4276 H   0  0  0  0  0  0
   -2.7469    2.5196    0.3281 H   0  0  0  0  0  0
   -0.4079   -1.7928    1.0984 H   0  0  0  0  0  0
   -0.3136    2.3771   -0.0068 H   0  0  0  0  0  0
    1.7299    2.1153    1.2106 H   0  0  0  0  0  0
    1.2614   -1.7514   -0.6287 H   0  0  0  0  0  0
    3.6723   -1.9144   -0.9398 H   0  0  0  0  0  0
    3.9030    3.0873    1.4555 H   0  0  0  0  0  0
    7.4070    0.9557    0.1222 H   0  0  0  0  0  0
    6.9431   -0.1714   -2.5091 H   0  0  0  0  0  0
    5.6737   -2.6008    0.8083 H   0  0  0  0  0  0
    8.0467   -2.0939   -3.5207 H   0  0  0  0  0  0
    6.7692   -4.5574   -0.1956 H   0  0  0  0  0  0
    6.6030   -5.8461   -2.1777 H   0  0  0  0  0  0
    8.7624   -3.8610   -4.4675 H   0  0  0  0  0  0
    8.7672   -5.5362   -0.5661 H   0  0  0  0  0  0
    8.6920   -6.2703   -4.8943 H   0  0  0  0  0  0
   10.2944   -5.6613   -5.1754 H   0  0  0  0  0  0
   11.3242   -4.1134   -3.5252 H   0  0  0  0  0  0
   10.3107   -2.7995   -2.9595 H   0  0  0  0  0  0
   10.3188   -7.2826   -1.4013 H   0  0  0  0  0  0
    8.7118   -7.5112   -2.0238 H   0  0  0  0  0  0
   10.2274   -3.6740   -0.8506 H   0  0  0  0  0  0
   11.3065   -4.9767   -1.3252 H   0  0  0  0  0  0
    9.9940   -7.8029   -3.8611 H   0  0  0  0  0  0
   11.1026   -6.6941   -3.3900 H   0  0  0  0  0  0
  1  2  1  0  0  0
  2  3  1  0  0  0
  2  4  1  0  0  0
  2  5  1  0  0  0
  5  6  2  0  0  0
  5  7  1  0  0  0
  6  8  1  0  0  0
  6 39  1  0  0  0
  7  9  2  0  0  0
  7 40  1  0  0  0
  8 10  2  0  0  0
  8 41  1  0  0  0
  9 10  1  0  0  0
  9 42  1  0  0  0
 10 11  1  0  0  0
 11 12  2  0  0  0
 11 13  1  0  0  0
 12 14  1  0  0  0
 12 43  1  0  0  0
 13 15  2  0  0  0
 13 44  1  0  0  0
 14 16  1  0  0  0
 14 17  2  0  0  0
 15 16  1  0  0  0
 15 45  1  0  0  0
 16 18  2  0  0  0
 17 19  1  0  0  0
 17 46  1  0  0  0
 18 20  1  0  0  0
 18 21  1  0  0  0
 19 22  1  0  0  0
 19 21  2  0  0  0
 20 23  2  0  0  0
 20 24  1  0  0  0
 21 47  1  0  0  0
 22 25  2  0  0  0
 22 26  1  0  0  0
 23 27  1  0  0  0
 23 48  1  0  0  0
 24 28  2  0  0  0
 24 49  1  0  0  0
 27 29  2  0  0  0
 27 50  1  0  0  0
 28 29  1  0  0  0
 28 51  1  0  0  0
 29 30  1  0  0  0
 30 31  1  0  0  0
 30 32  1  0  0  0
 30 33  1  0  0  0
 31 52  1  0  0  0
 32 34  1  0  0  0
 32 35  1  0  0  0
 32 53  1  0  0  0
 33 36  1  0  0  0
 33 37  1  0  0  0
 33 54  1  0  0  0
 34 38  1  0  0  0
 34 55  1  0  0  0
 34 56  1  0  0  0
 35 37  1  0  0  0
 35 57  1  0  0  0
 35 58  1  0  0  0
 36 38  1  0  0  0
 36 59  1  0  0  0
 36 60  1  0  0  0
 37 61  1  0  0  0
 37 62  1  0  0  0
 38 63  1  0  0  0
 38 64  1  0  0  0
M  CHG  2  26  -1  38   1
M  END
> <i_epik_Tot_Q>
0

> <i_epik_Tot_abs_Q>
2

> <i_lp_mmshare_version>
62121

> <i_m_Source_File_Index>
97

> <i_phase_Input_Structure_Number>
117

> <i_phase_Reference_Structure>
116

> <i_phase_Structure_Number>
117

> <Molecule Name>
163

> <Rotatable Bonds>
5

> <i_f3d_flags>
0

> <b_lp_Chiralities_Consistent>
1

> <r_canvas_IC50_human_P2Y14R,_nM>
21.3

> <r_canvas_pIC50>
7.67162039656126

> <r_epik_Charging_Adjusted_Penalty>
0.00195867263487205

> <r_epik_Ionization_Penalty>
  0.0020

> <r_epik_Ionization_Penalty_Charging>
  0.0020

> <r_epik_Ionization_Penalty_Neutral>
  0.0000

> <r_epik_State_Penalty>
  0.0000

> <r_lp_Energy>
83.884841

> <r_lp_tautomer_probability>
1

> <r_phase_Similarity_to_Reference>
0.83196227355442

> <s_canvas_CHEMBLID>
CID 164585584

> <s_canvas_Compound>
30

> <s_canvas_Paper>
Wen2022

> <s_epik_cmdline>
J2VwaWtfcHl0aG9uJywgJy1waCcsICc3LjAnLCAnLXRuJywgJzgnLCAnLW1hJywgJzUwMCcsICctaW1hZScsICc8aW5maWxlLm1hZT4nLCAnLW9tYWUnLCAnPG91dGZpbGUubWFlPic=

> <s_epik_input>
RkMoRikoRiljMVtjSF1bY0hdYyhbY0hdW2NIXTEpLWMoW2NIXTIpW2NIXVtjSF1jKGMyMyljKFtjSF1jKFtjSF0zKUMoPU8pW09IXSktYzRbY0hdW2NIXWMoW2NIXVtjSF00KVtDQEBdKFtPSF0pKFtDQEhdNTYpW0NASF0oW0NIMl1bQ0gyXTYpW0NIMl1bTkhdW0NIMl01

> <s_lp_Force_Field>
S-OPLS

> <s_lp_Variant>
163-1

> <s_m_Source_File>
database-aligned.sdf

> <s_m_Source_Path>
/data/matteo/P2Y14-antagonists-piperidineDerivatives-Wen2023/14052024-optimized-alignment

> <s_m_entry_id>
97

> <s_m_entry_name>
database-aligned.97

> <s_m_job_name>
align_ligands_1

> <s_phase_Alignment_Method>
snapped core

> <s_phase_Alignment_Reason>


> <s_phase_Core_SMARTS>
A12A[A]AA(AA1)A2a3aaa(aa3)-a(aaa4)a(a45)aaa(a5)-a6aaaaa6

$$$$
164
                    3D
 Schrodinger Suite 2023-2.
 67 72  0  0  1  0            999 V2000
   -5.0261    1.4324    0.2838 F   0  0  0  0  0  0
   -4.4843    0.5364    1.1094 C   0  0  0  0  0  0
   -4.7261    0.9091    2.3654 F   0  0  0  0  0  0
   -5.0718   -0.6406    0.8904 F   0  0  0  0  0  0
   -2.9805    0.4435    0.8954 C   0  0  0  0  0  0
   -2.2992   -0.7723    1.1122 C   0  0  0  0  0  0
   -2.2454    1.5776    0.4941 C   0  0  0  0  0  0
   -0.9062   -0.8510    0.9207 C   0  0  0  0  0  0
   -0.8521    1.4946    0.3065 C   0  0  0  0  0  0
   -0.1610    0.2796    0.5158 C   0  0  0  0  0  0
    1.3001    0.1930    0.3226 C   0  0  0  0  0  0
    2.1524    1.2383    0.7416 C   0  0  0  0  0  0
    1.8847   -0.9390   -0.2850 C   0  0  0  0  0  0
    3.5501    1.1548    0.5712 C   0  0  0  0  0  0
    3.2777   -1.0307   -0.4622 C   0  0  0  0  0  0
    4.1320    0.0089   -0.0274 C   0  0  0  0  0  0
    4.3632    2.2211    1.0016 C   0  0  0  0  0  0
    5.5422   -0.0679   -0.1843 C   0  0  0  0  0  0
    5.7637    2.1649    0.8405 C   0  0  0  0  0  0
    6.2189   -1.2368   -0.7759 C   0  0  0  0  0  0
    6.3353    1.0178    0.2468 C   0  0  0  0  0  0
    6.6335    3.3065    1.2938 C   0  0  0  0  0  0
    6.9102   -1.1235   -1.9992 C   0  0  0  0  0  0
    6.1956   -2.4906   -0.1313 C   0  0  0  0  0  0
    7.8718    3.2234    1.1339 O   0  0  0  0  0  0
    6.0939    4.3069    1.8173 O   0  5  0  0  0  0
    7.5479   -2.2386   -2.5763 C   0  0  0  0  0  0
    6.8300   -3.6077   -0.7058 C   0  0  0  0  0  0
    7.5223   -3.4998   -1.9335 C   0  0  0  0  0  0
    8.1668   -4.7603   -2.5405 C   0  0  1  0  0  0
    7.1322   -5.6462   -2.9349 O   0  0  0  0  0  0
    9.1677   -4.5137   -3.6951 C   0  0  2  0  0  0
    9.1681   -5.4314   -1.5741 C   0  0  1  0  0  0
    9.5605   -5.8453   -4.3903 C   0  0  0  0  0  0
   10.3949   -3.8857   -3.0017 C   0  0  0  0  0  0
    9.5748   -6.8461   -2.0682 C   0  0  0  0  0  0
   10.3736   -4.4725   -1.5796 C   0  0  0  0  0  0
   10.1128   -6.8814   -3.4645 N   0  3  2  0  0  0
   11.5848   -7.0394   -3.5391 C   0  0  0  0  0  0
   -2.8407   -1.6509    1.4303 H   0  0  0  0  0  0
   -2.7460    2.5205    0.3310 H   0  0  0  0  0  0
   -0.4079   -1.7926    1.0991 H   0  0  0  0  0  0
   -0.3135    2.3774   -0.0061 H   0  0  0  0  0  0
    1.7300    2.1155    1.2105 H   0  0  0  0  0  0
    1.2615   -1.7515   -0.6287 H   0  0  0  0  0  0
    3.6722   -1.9145   -0.9398 H   0  0  0  0  0  0
    3.9026    3.0872    1.4553 H   0  0  0  0  0  0
    7.4069    0.9554    0.1217 H   0  0  0  0  0  0
    6.9431   -0.1717   -2.5093 H   0  0  0  0  0  0
    5.6738   -2.6009    0.8082 H   0  0  0  0  0  0
    8.0462   -2.0941   -3.5211 H   0  0  0  0  0  0
    6.7693   -4.5572   -0.1954 H   0  0  0  0  0  0
    6.6030   -5.8461   -2.1777 H   0  0  0  0  0  0
    8.7617   -3.8615   -4.4674 H   0  0  0  0  0  0
    8.7669   -5.5362   -0.5663 H   0  0  0  0  0  0
    8.6852   -6.2741   -4.8789 H   0  0  0  0  0  0
   10.2642   -5.6496   -5.2005 H   0  0  0  0  0  0
   11.3250   -4.0875   -3.5323 H   0  0  0  0  0  0
   10.2979   -2.8011   -2.9519 H   0  0  0  0  0  0
   10.2901   -7.2925   -1.3761 H   0  0  0  0  0  0
    8.7051   -7.5029   -2.0365 H   0  0  0  0  0  0
   10.2200   -3.6719   -0.8547 H   0  0  0  0  0  0
   11.3062   -4.9689   -1.3118 H   0  0  0  0  0  0
   12.1166   -6.1771   -3.1421 H   0  0  0  0  0  0
   11.9026   -7.1881   -4.5714 H   0  0  0  0  0  0
   11.9020   -7.9167   -2.9743 H   0  0  0  0  0  0
    9.7768   -7.7564   -3.8411 H   0  0  0  0  0  0
  1  2  1  0  0  0
  2  3  1  0  0  0
  2  4  1  0  0  0
  2  5  1  0  0  0
  5  6  2  0  0  0
  5  7  1  0  0  0
  6  8  1  0  0  0
  6 40  1  0  0  0
  7  9  2  0  0  0
  7 41  1  0  0  0
  8 10  2  0  0  0
  8 42  1  0  0  0
  9 10  1  0  0  0
  9 43  1  0  0  0
 10 11  1  0  0  0
 11 12  2  0  0  0
 11 13  1  0  0  0
 12 14  1  0  0  0
 12 44  1  0  0  0
 13 15  2  0  0  0
 13 45  1  0  0  0
 14 16  1  0  0  0
 14 17  2  0  0  0
 15 16  1  0  0  0
 15 46  1  0  0  0
 16 18  2  0  0  0
 17 19  1  0  0  0
 17 47  1  0  0  0
 18 20  1  0  0  0
 18 21  1  0  0  0
 19 22  1  0  0  0
 19 21  2  0  0  0
 20 23  2  0  0  0
 20 24  1  0  0  0
 21 48  1  0  0  0
 22 25  2  0  0  0
 22 26  1  0  0  0
 23 27  1  0  0  0
 23 49  1  0  0  0
 24 28  2  0  0  0
 24 50  1  0  0  0
 27 29  2  0  0  0
 27 51  1  0  0  0
 28 29  1  0  0  0
 28 52  1  0  0  0
 29 30  1  0  0  0
 30 31  1  0  0  0
 30 32  1  0  0  0
 30 33  1  0  0  0
 31 53  1  0  0  0
 32 34  1  0  0  0
 32 35  1  0  0  0
 32 54  1  0  0  0
 33 36  1  0  0  0
 33 37  1  0  0  0
 33 55  1  0  0  0
 34 38  1  0  0  0
 34 56  1  0  0  0
 34 57  1  0  0  0
 35 37  1  0  0  0
 35 58  1  0  0  0
 35 59  1  0  0  0
 36 38  1  0  0  0
 36 60  1  0  0  0
 36 61  1  0  0  0
 37 62  1  0  0  0
 37 63  1  0  0  0
 38 39  1  0  0  0
 38 67  1  0  0  0
 39 64  1  0  0  0
 39 65  1  0  0  0
 39 66  1  0  0  0
M  CHG  2  26  -1  38   1
M  END
> <i_epik_Tot_Q>
0

> <i_epik_Tot_abs_Q>
2

> <i_lp_mmshare_version>
62121

> <i_m_Source_File_Index>
98

> <i_phase_Input_Structure_Number>
118

> <i_phase_Reference_Structure>
116

> <i_phase_Structure_Number>
118

> <Molecule Name>
164

> <Rotatable Bonds>
5

> <i_f3d_flags>
0

> <b_lp_Chiralities_Consistent>
1

> <r_canvas_IC50_human_P2Y14R,_nM>
44.6

> <r_canvas_pIC50>
7.35066514128786

> <r_epik_Charging_Adjusted_Penalty>
0.00575403909582952

> <r_epik_Ionization_Penalty>
  0.0058

> <r_epik_Ionization_Penalty_Charging>
  0.0058

> <r_epik_Ionization_Penalty_Neutral>
  0.0000

> <r_epik_State_Penalty>
  0.0000

> <r_lp_Energy>
93.14139

> <r_lp_tautomer_probability>
1

> <r_phase_Similarity_to_Reference>
0.854981146974908

> <s_canvas_CHEMBLID>
CID 164585581

> <s_canvas_Compound>
31

> <s_canvas_Paper>
Wen2022

> <s_epik_cmdline>
J2VwaWtfcHl0aG9uJywgJy1waCcsICc3LjAnLCAnLXRuJywgJzgnLCAnLW1hJywgJzUwMCcsICctaW1hZScsICc8aW5maWxlLm1hZT4nLCAnLW9tYWUnLCAnPG91dGZpbGUubWFlPic=

> <s_epik_input>
RkMoRikoRiljMVtjSF1bY0hdYyhbY0hdW2NIXTEpLWMoW2NIXTIpW2NIXVtjSF1jKGMyMyljKFtjSF1jKFtjSF0zKUMoPU8pW09IXSktYzRbY0hdW2NIXWMoW2NIXVtjSF00KVtDQEBdKFtPSF0pKFtDQEhdNTYpW0NASF0oW0NIMl1bQ0gyXTYpW0NIMl1OKFtDSDJdNSlbQ0gzXQ==

> <s_lp_Force_Field>
S-OPLS

> <s_lp_Variant>
164-1

> <s_m_Source_File>
database-aligned.sdf

> <s_m_Source_Path>
/data/matteo/P2Y14-antagonists-piperidineDerivatives-Wen2023/14052024-optimized-alignment

> <s_m_entry_id>
98

> <s_m_entry_name>
database-aligned.98

> <s_m_job_name>
align_ligands_1

> <s_phase_Alignment_Method>
snapped core

> <s_phase_Alignment_Reason>


> <s_phase_Core_SMARTS>
A12A[A]AA(AA1)A2a3aaa(aa3)-a(aaa4)a(a45)aaa(a5)-a6aaaaa6

$$$$
165
                    3D
 Schrodinger Suite 2023-2.
 63 68  0  0  1  0            999 V2000
   -5.0768   -0.4099    0.9421 F   0  0  0  0  0  0
   -4.4323    0.7117    1.2662 C   0  0  0  0  0  0
   -4.9439    1.7095    0.5446 F   0  0  0  0  0  0
   -4.6381    0.9669    2.5576 F   0  0  0  0  0  0
   -2.9380    0.5713    1.0158 C   0  0  0  0  0  0
   -2.1582    1.6999    0.6900 C   0  0  0  0  0  0
   -2.3091   -0.6857    1.1271 C   0  0  0  0  0  0
   -0.7732    1.5692    0.4703 C   0  0  0  0  0  0
   -0.9242   -0.8113    0.9055 C   0  0  0  0  0  0
   -0.1334    0.3126    0.5736 C   0  0  0  0  0  0
    1.3206    0.1778    0.3473 C   0  0  0  0  0  0
    2.2195    1.1760    0.7841 C   0  0  0  0  0  0
    1.8525   -0.9522   -0.3119 C   0  0  0  0  0  0
    3.6087    1.0524    0.5750 C   0  0  0  0  0  0
    3.2374   -1.0854   -0.5255 C   0  0  0  0  0  0
    4.1358   -0.0891   -0.0795 C   0  0  0  0  0  0
    4.4677    2.0751    1.0219 C   0  0  0  0  0  0
    5.5371   -0.2038   -0.2795 C   0  0  0  0  0  0
    5.8610    1.9794    0.8210 C   0  0  0  0  0  0
    6.1622   -1.3670   -0.9332 C   0  0  0  0  0  0
    6.3775    0.8379    0.1698 C   0  0  0  0  0  0
    6.7807    3.0729    1.2943 C   0  0  0  0  0  0
    6.1789   -2.6291   -0.3039 C   0  0  0  0  0  0
    6.7731   -1.2351   -2.1970 C   0  0  0  0  0  0
    8.0113    2.9527    1.1013 O   0  0  0  0  0  0
    6.2891    4.0712    1.8668 O   0  5  0  0  0  0
    6.7981   -3.7332   -0.9197 C   0  0  0  0  0  0
    7.3927   -2.3372   -2.8162 C   0  0  0  0  0  0
    7.4353   -3.5946   -2.1732 C   0  0  0  0  0  0
    8.0993   -4.7993   -2.8517 C   0  0  2  0  0  0
    8.7470   -5.8518   -1.9318 C   0  0  2  0  0  0
    9.3168   -4.5131   -3.7515 C   0  0  1  0  0  0
    9.8131   -5.1996   -1.0107 C   0  0  0  0  0  0
    9.4040   -6.8149   -2.9395 C   0  0  0  0  0  0
   10.4226   -3.7632   -2.9610 C   0  0  0  0  0  0
    9.7825   -5.9292   -4.1427 C   0  0  0  0  0  0
   10.8937   -4.5570   -1.7990 N   0  3  0  0  0  0
   -2.6178    2.6739    0.6084 H   0  0  0  0  0  0
   -2.8852   -1.5613    1.3878 H   0  0  0  0  0  0
   -0.2020    2.4497    0.2146 H   0  0  0  0  0  0
   -0.4680   -1.7853    1.0043 H   0  0  0  0  0  0
    1.8410    2.0494    1.2951 H   0  0  0  0  0  0
    1.1949   -1.7305   -0.6700 H   0  0  0  0  0  0
    3.5927   -1.9646   -1.0414 H   0  0  0  0  0  0
    4.0487    2.9385    1.5190 H   0  0  0  0  0  0
    7.4427    0.7452    0.0127 H   0  0  0  0  0  0
    5.7110   -2.7527    0.6620 H   0  0  0  0  0  0
    6.7652   -0.2785   -2.6989 H   0  0  0  0  0  0
    6.7813   -4.6855   -0.4121 H   0  0  0  0  0  0
    7.8395   -2.2001   -3.7891 H   0  0  0  0  0  0
    7.3196   -5.2774   -3.4478 H   0  0  0  0  0  0
    8.0050   -6.3759   -1.3288 H   0  0  0  0  0  0
    9.0413   -3.9424   -4.6387 H   0  0  0  0  0  0
    9.3658   -4.4548   -0.3533 H   0  0  0  0  0  0
   10.2616   -5.9506   -0.3600 H   0  0  0  0  0  0
   10.2653   -7.3341   -2.5175 H   0  0  0  0  0  0
    8.6893   -7.5767   -3.2537 H   0  0  0  0  0  0
   11.2764   -3.5568   -3.6067 H   0  0  0  0  0  0
   10.0683   -2.7962   -2.6061 H   0  0  0  0  0  0
    9.2507   -6.2696   -5.0321 H   0  0  0  0  0  0
   10.8487   -5.9682   -4.3693 H   0  0  0  0  0  0
   11.4579   -3.9763   -1.1950 H   0  0  0  0  0  0
   11.4736   -5.2987   -2.1643 H   0  0  0  0  0  0
  1  2  1  0  0  0
  2  3  1  0  0  0
  2  4  1  0  0  0
  2  5  1  0  0  0
  5  6  2  0  0  0
  5  7  1  0  0  0
  6  8  1  0  0  0
  6 38  1  0  0  0
  7  9  2  0  0  0
  7 39  1  0  0  0
  8 10  2  0  0  0
  8 40  1  0  0  0
  9 10  1  0  0  0
  9 41  1  0  0  0
 10 11  1  0  0  0
 11 12  2  0  0  0
 11 13  1  0  0  0
 12 14  1  0  0  0
 12 42  1  0  0  0
 13 15  2  0  0  0
 13 43  1  0  0  0
 14 16  1  0  0  0
 14 17  2  0  0  0
 15 16  1  0  0  0
 15 44  1  0  0  0
 16 18  2  0  0  0
 17 19  1  0  0  0
 17 45  1  0  0  0
 18 20  1  0  0  0
 18 21  1  0  0  0
 19 22  1  0  0  0
 19 21  2  0  0  0
 20 23  2  0  0  0
 20 24  1  0  0  0
 21 46  1  0  0  0
 22 25  2  0  0  0
 22 26  1  0  0  0
 23 27  1  0  0  0
 23 47  1  0  0  0
 24 28  2  0  0  0
 24 48  1  0  0  0
 27 29  2  0  0  0
 27 49  1  0  0  0
 28 29  1  0  0  0
 28 50  1  0  0  0
 29 30  1  0  0  0
 30 31  1  0  0  0
 30 32  1  0  0  0
 30 51  1  0  0  0
 31 33  1  0  0  0
 31 34  1  0  0  0
 31 52  1  0  0  0
 32 35  1  0  0  0
 32 36  1  0  0  0
 32 53  1  0  0  0
 33 37  1  0  0  0
 33 54  1  0  0  0
 33 55  1  0  0  0
 34 36  1  0  0  0
 34 56  1  0  0  0
 34 57  1  0  0  0
 35 37  1  0  0  0
 35 58  1  0  0  0
 35 59  1  0  0  0
 36 60  1  0  0  0
 36 61  1  0  0  0
 37 62  1  0  0  0
 37 63  1  0  0  0
M  CHG  2  26  -1  37   1
M  END
> <i_epik_Tot_Q>
0

> <i_epik_Tot_abs_Q>
2

> <i_lp_mmshare_version>
62121

> <i_m_Source_File_Index>
99

> <i_phase_Input_Structure_Number>
119

> <i_phase_Reference_Structure>
116

> <i_phase_Structure_Number>
119

> <Molecule Name>
165

> <Rotatable Bonds>
5

> <i_f3d_flags>
0

> <b_lp_Chiralities_Consistent>
1

> <r_canvas_IC50_human_P2Y14R,_nM>
696

> <r_canvas_pIC50>
6.15739076038944

> <r_epik_Charging_Adjusted_Penalty>
0.00110623106968962

> <r_epik_Ionization_Penalty>
  0.0011

> <r_epik_Ionization_Penalty_Charging>
  0.0011

> <r_epik_Ionization_Penalty_Neutral>
  0.0000

> <r_epik_State_Penalty>
  0.0000

> <r_lp_Energy>
82.097327

> <r_lp_tautomer_probability>
1

> <r_phase_Similarity_to_Reference>
0.781249368673674

> <s_canvas_CHEMBLID>
CID 155672013

> <s_canvas_Compound>
32

> <s_canvas_Paper>
Wen2022

> <s_epik_cmdline>
J2VwaWtfcHl0aG9uJywgJy1waCcsICc3LjAnLCAnLXRuJywgJzgnLCAnLW1hJywgJzUwMCcsICctaW1hZScsICc8aW5maWxlLm1hZT4nLCAnLW9tYWUnLCAnPG91dGZpbGUubWFlPic=

> <s_epik_input>
RkMoRikoRiljMVtjSF1bY0hdYyhbY0hdW2NIXTEpLWMoW2NIXTIpW2NIXVtjSF1jKGMyMyljKFtjSF1jKFtjSF0zKUMoPU8pW09IXSktYzRbY0hdW2NIXWMoW2NIXVtjSF00KVtDQEhdKFtDQEhdNTYpW0NASF0oW0NIMl1bQ0gyXTYpW0NIMl1bTkhdW0NIMl01

> <s_lp_Force_Field>
S-OPLS

> <s_lp_Variant>
165-1

> <s_m_Source_File>
database-aligned.sdf

> <s_m_Source_Path>
/data/matteo/P2Y14-antagonists-piperidineDerivatives-Wen2023/14052024-optimized-alignment

> <s_m_entry_id>
99

> <s_m_entry_name>
database-aligned.99

> <s_m_job_name>
align_ligands_1

> <s_phase_Alignment_Method>
flexible least-squares core

> <s_phase_Alignment_Reason>
stereochemistry change

> <s_phase_Core_SMARTS>
A12A[A]AA(AA1)A2a3aaa(aa3)-a(aaa4)a(a45)aaa(a5)-a6aaaaa6

$$$$
170
                    3D
 Schrodinger Suite 2023-2.
 63 68  0  0  1  0            999 V2000
    5.3719   -2.7200    1.5752 Br  0  0  0  0  0  0
    6.1956   -2.4906   -0.1313 C   0  0  0  0  0  0
    6.2189   -1.2368   -0.7759 C   0  0  0  0  0  0
    6.8300   -3.6077   -0.7058 C   0  0  0  0  0  0
    5.5422   -0.0679   -0.1843 C   0  0  0  0  0  0
    6.9102   -1.1235   -1.9992 C   0  0  0  0  0  0
    7.5223   -3.4998   -1.9335 C   0  0  0  0  0  0
    4.1320    0.0089   -0.0274 C   0  0  0  0  0  0
    6.3353    1.0178    0.2468 C   0  0  0  0  0  0
    7.5479   -2.2386   -2.5763 C   0  0  0  0  0  0
    3.5501    1.1548    0.5712 C   0  0  0  0  0  0
    3.2777   -1.0307   -0.4622 C   0  0  0  0  0  0
    5.7637    2.1649    0.8405 C   0  0  0  0  0  0
    8.3035   -2.0778   -3.9179 C   0  0  0  0  0  0
    2.1524    1.2383    0.7416 C   0  0  0  0  0  0
    4.3632    2.2211    1.0016 C   0  0  0  0  0  0
    1.8847   -0.9390   -0.2850 C   0  0  0  0  0  0
    6.6335    3.3065    1.2938 C   0  0  0  0  0  0
    7.3602   -2.3471   -5.1158 C   0  0  0  0  0  0
    9.5062   -3.0622   -4.0668 C   0  0  0  0  0  0
    8.8923   -0.6461   -4.1269 C   0  0  0  0  0  0
    1.3001    0.1930    0.3226 C   0  0  0  0  0  0
    7.8718    3.2234    1.1339 O   0  0  0  0  0  0
    6.0939    4.3069    1.8173 O   0  5  0  0  0  0
    8.1220   -2.1860   -6.4598 C   0  0  0  0  0  0
   10.2234   -2.8756   -5.4267 C   0  0  0  0  0  0
    9.6280   -0.5309   -5.4845 C   0  0  0  0  0  0
   -0.1610    0.2796    0.5158 C   0  0  0  0  0  0
    9.5432   -1.8190   -6.2137 N   0  3  0  0  0  0
   -0.8521    1.4946    0.3065 C   0  0  0  0  0  0
   -0.9062   -0.8510    0.9207 C   0  0  0  0  0  0
   -2.2454    1.5776    0.4941 C   0  0  0  0  0  0
   -2.2992   -0.7723    1.1122 C   0  0  0  0  0  0
   -2.9805    0.4435    0.8954 C   0  0  0  0  0  0
   -4.4843    0.5364    1.1094 C   0  0  0  0  0  0
   -5.0261    1.4324    0.2838 F   0  0  0  0  0  0
   -4.7261    0.9091    2.3654 F   0  0  0  0  0  0
   -5.0718   -0.6406    0.8904 F   0  0  0  0  0  0
    6.8037   -4.5580   -0.1931 H   0  0  0  0  0  0
    6.9059   -0.1576   -2.4764 H   0  0  0  0  0  0
    7.9906   -4.3817   -2.3382 H   0  0  0  0  0  0
    7.4070    0.9553    0.1227 H   0  0  0  0  0  0
    3.6713   -1.9143   -0.9407 H   0  0  0  0  0  0
    1.7299    2.1150    1.2111 H   0  0  0  0  0  0
    3.9031    3.0873    1.4555 H   0  0  0  0  0  0
    1.2616   -1.7514   -0.6288 H   0  0  0  0  0  0
    6.9416   -3.3522   -5.0481 H   0  0  0  0  0  0
    6.5114   -1.6624   -5.0893 H   0  0  0  0  0  0
   10.2153   -2.9229   -3.2492 H   0  0  0  0  0  0
    9.1808   -4.1005   -4.0234 H   0  0  0  0  0  0
    8.1115    0.1128   -4.1315 H   0  0  0  0  0  0
    9.5708   -0.3905   -3.3115 H   0  0  0  0  0  0
    8.0803   -3.1124   -7.0344 H   0  0  0  0  0  0
    7.6500   -1.4188   -7.0751 H   0  0  0  0  0  0
   11.2694   -2.6057   -5.2742 H   0  0  0  0  0  0
   10.2239   -3.8085   -5.9920 H   0  0  0  0  0  0
    9.1895    0.2617   -6.0923 H   0  0  0  0  0  0
   10.6739   -0.2609   -5.3319 H   0  0  0  0  0  0
   -0.3137    2.3768   -0.0080 H   0  0  0  0  0  0
   -0.4078   -1.7928    1.0981 H   0  0  0  0  0  0
   -2.7526    2.5162    0.3256 H   0  0  0  0  0  0
   -2.8367   -1.6552    1.4247 H   0  0  0  0  0  0
   10.0140   -1.7212   -7.1022 H   0  0  0  0  0  0
  1  2  1  0  0  0
  2  3  2  0  0  0
  2  4  1  0  0  0
  3  5  1  0  0  0
  3  6  1  0  0  0
  4  7  2  0  0  0
  4 39  1  0  0  0
  5  8  1  0  0  0
  5  9  2  0  0  0
  6 10  2  0  0  0
  6 40  1  0  0  0
  7 10  1  0  0  0
  7 41  1  0  0  0
  8 11  1  0  0  0
  8 12  2  0  0  0
  9 13  1  0  0  0
  9 42  1  0  0  0
 10 14  1  0  0  0
 11 15  2  0  0  0
 11 16  1  0  0  0
 12 17  1  0  0  0
 12 43  1  0  0  0
 13 18  1  0  0  0
 13 16  2  0  0  0
 14 19  1  0  0  0
 14 20  1  0  0  0
 14 21  1  0  0  0
 15 22  1  0  0  0
 15 44  1  0  0  0
 16 45  1  0  0  0
 17 22  2  0  0  0
 17 46  1  0  0  0
 18 23  2  0  0  0
 18 24  1  0  0  0
 19 25  1  0  0  0
 19 47  1  0  0  0
 19 48  1  0  0  0
 20 26  1  0  0  0
 20 49  1  0  0  0
 20 50  1  0  0  0
 21 27  1  0  0  0
 21 51  1  0  0  0
 21 52  1  0  0  0
 22 28  1  0  0  0
 25 29  1  0  0  0
 25 53  1  0  0  0
 25 54  1  0  0  0
 26 29  1  0  0  0
 26 55  1  0  0  0
 26 56  1  0  0  0
 27 29  1  0  0  0
 27 57  1  0  0  0
 27 58  1  0  0  0
 28 30  2  0  0  0
 28 31  1  0  0  0
 29 63  1  0  0  0
 30 32  1  0  0  0
 30 59  1  0  0  0
 31 33  2  0  0  0
 31 60  1  0  0  0
 32 34  2  0  0  0
 32 61  1  0  0  0
 33 34  1  0  0  0
 33 62  1  0  0  0
 34 35  1  0  0  0
 35 36  1  0  0  0
 35 37  1  0  0  0
 35 38  1  0  0  0
M  CHG  2  24  -1  29   1
M  END
> <i_epik_Tot_Q>
0

> <i_epik_Tot_abs_Q>
2

> <i_lp_mmshare_version>
62121

> <i_m_Source_File_Index>
100

> <i_phase_Input_Structure_Number>
120

> <i_phase_Reference_Structure>
116

> <i_phase_Structure_Number>
120

> <Molecule Name>
170

> <Rotatable Bonds>
5

> <i_f3d_flags>
0

> <b_lp_Chiralities_Consistent>
1

> <r_canvas_IC50_human_P2Y14R,_nM>
8900

> <r_canvas_pIC50>
5.05060999335509

> <r_epik_Charging_Adjusted_Penalty>
0.00158285672306294

> <r_epik_Ionization_Penalty>
  0.0016

> <r_epik_Ionization_Penalty_Charging>
  0.0016

> <r_epik_Ionization_Penalty_Neutral>
  0.0000

> <r_epik_State_Penalty>
  0.0000

> <r_lp_Energy>
87.700749

> <r_lp_tautomer_probability>
1

> <r_phase_Similarity_to_Reference>
0.649855645475507

> <s_canvas_CHEMBLID>
CHEMBL

> <s_canvas_Compound>
37

> <s_canvas_Paper>
Wen2022

> <s_epik_cmdline>
J2VwaWtfcHl0aG9uJywgJy1waCcsICc3LjAnLCAnLXRuJywgJzgnLCAnLW1hJywgJzUwMCcsICctaW1hZScsICc8aW5maWxlLm1hZT4nLCAnLW9tYWUnLCAnPG91dGZpbGUubWFlPic=

> <s_epik_input>
W0NIMl0xW0NIMl1OKFtDSDJdW0NIMl0yKVtDSDJdW0NIMl1DMTJjKFtjSF1bY0hdMylbY0hdYyhjM0JyKS1jNFtjSF1jKEMoPU8pW09IXSlbY0hdYyhjNDUpW2NIXWMoW2NIXVtjSF01KS1jNltjSF1bY0hdYyhDKEYpKEYpRilbY0hdW2NIXTY=

> <s_lp_Force_Field>
S-OPLS

> <s_lp_Variant>
170-1

> <s_m_Source_File>
database-aligned.sdf

> <s_m_Source_Path>
/data/matteo/P2Y14-antagonists-piperidineDerivatives-Wen2023/14052024-optimized-alignment

> <s_m_entry_id>
100

> <s_m_entry_name>
database-aligned.100

> <s_m_job_name>
align_ligands_1

> <s_phase_Alignment_Method>
snapped core

> <s_phase_Alignment_Reason>


> <s_phase_Core_SMARTS>
a1aaaaa1-a(a2)aaa(a23)a(aaa3)-a4aaaaa4

$$$$
171
                    3D
 Schrodinger Suite 2023-2.
 63 67  0  0  1  0            999 V2000
   -5.0261    1.4324    0.2838 F   0  0  0  0  0  0
   -4.4843    0.5364    1.1094 C   0  0  0  0  0  0
   -4.7261    0.9091    2.3654 F   0  0  0  0  0  0
   -5.0718   -0.6406    0.8904 F   0  0  0  0  0  0
   -2.9805    0.4435    0.8954 C   0  0  0  0  0  0
   -2.2992   -0.7723    1.1122 C   0  0  0  0  0  0
   -2.2454    1.5776    0.4941 C   0  0  0  0  0  0
   -0.9062   -0.8510    0.9207 C   0  0  0  0  0  0
   -0.8521    1.4946    0.3065 C   0  0  0  0  0  0
   -0.1610    0.2796    0.5158 C   0  0  0  0  0  0
    1.3001    0.1930    0.3226 C   0  0  0  0  0  0
    2.1524    1.2383    0.7416 C   0  0  0  0  0  0
    1.8847   -0.9390   -0.2850 C   0  0  0  0  0  0
    3.5501    1.1548    0.5712 C   0  0  0  0  0  0
    3.2777   -1.0307   -0.4622 C   0  0  0  0  0  0
    4.1320    0.0089   -0.0274 C   0  0  0  0  0  0
    4.3632    2.2211    1.0016 C   0  0  0  0  0  0
    5.5422   -0.0679   -0.1843 C   0  0  0  0  0  0
    5.7637    2.1649    0.8405 C   0  0  0  0  0  0
    6.2189   -1.2368   -0.7759 C   0  0  0  0  0  0
    6.3353    1.0178    0.2468 C   0  0  0  0  0  0
    6.6335    3.3065    1.2938 C   0  0  0  0  0  0
    6.9102   -1.1235   -1.9992 C   0  0  0  0  0  0
    6.1956   -2.4906   -0.1313 C   0  0  0  0  0  0
    7.8718    3.2234    1.1339 O   0  0  0  0  0  0
    6.0939    4.3069    1.8173 O   0  5  0  0  0  0
    7.5479   -2.2386   -2.5763 C   0  0  0  0  0  0
    6.8300   -3.6077   -0.7058 C   0  0  0  0  0  0
    7.5223   -3.4998   -1.9335 C   0  0  0  0  0  0
    8.1668   -4.7603   -2.5405 C   0  0  2  0  0  0
    9.1681   -5.4314   -1.5741 C   0  0  2  0  0  0
    9.1677   -4.5137   -3.6951 C   0  0  0  0  0  0
   10.3736   -4.4725   -1.5796 C   0  0  0  0  0  0
    9.5113   -6.9029   -1.9048 C   0  0  0  0  0  0
   10.3949   -3.8857   -3.0017 C   0  0  1  0  0  0
   10.2370   -7.4820   -0.8411 O   0  0  0  0  0  0
   11.6427   -4.2121   -3.7131 N   0  3  0  0  0  0
   -2.8409   -1.6509    1.4302 H   0  0  0  0  0  0
   -2.7463    2.5203    0.3302 H   0  0  0  0  0  0
   -0.4078   -1.7926    1.0990 H   0  0  0  0  0  0
   -0.3135    2.3772   -0.0066 H   0  0  0  0  0  0
    1.7299    2.1152    1.2109 H   0  0  0  0  0  0
    1.2615   -1.7513   -0.6290 H   0  0  0  0  0  0
    3.6724   -1.9143   -0.9399 H   0  0  0  0  0  0
    3.9029    3.0874    1.4552 H   0  0  0  0  0  0
    7.4069    0.9554    0.1220 H   0  0  0  0  0  0
    6.9431   -0.1715   -2.5091 H   0  0  0  0  0  0
    5.6725   -2.6016    0.8075 H   0  0  0  0  0  0
    8.0458   -2.0970   -3.5219 H   0  0  0  0  0  0
    6.7633   -4.5574   -0.1963 H   0  0  0  0  0  0
    7.3735   -5.4455   -2.8419 H   0  0  0  0  0  0
    8.7487   -5.4565   -0.5690 H   0  0  0  0  0  0
    9.4310   -5.4507   -4.1857 H   0  0  0  0  0  0
    8.7646   -3.8847   -4.4882 H   0  0  0  0  0  0
   10.2240   -3.6732   -0.8520 H   0  0  0  0  0  0
   11.3020   -4.9780   -1.3102 H   0  0  0  0  0  0
    8.5976   -7.4805   -2.0477 H   0  0  0  0  0  0
   10.1044   -7.0030   -2.8129 H   0  0  0  0  0  0
   10.2878   -2.8021   -2.9468 H   0  0  0  0  0  0
   10.3799   -8.3964   -1.0345 H   0  0  0  0  0  0
   11.7494   -5.2172   -3.7415 H   0  0  0  0  0  0
   12.4269   -3.8061   -3.2238 H   0  0  0  0  0  0
   11.6028   -3.8497   -4.6545 H   0  0  0  0  0  0
  1  2  1  0  0  0
  2  3  1  0  0  0
  2  4  1  0  0  0
  2  5  1  0  0  0
  5  6  2  0  0  0
  5  7  1  0  0  0
  6  8  1  0  0  0
  6 38  1  0  0  0
  7  9  2  0  0  0
  7 39  1  0  0  0
  8 10  2  0  0  0
  8 40  1  0  0  0
  9 10  1  0  0  0
  9 41  1  0  0  0
 10 11  1  0  0  0
 11 12  2  0  0  0
 11 13  1  0  0  0
 12 14  1  0  0  0
 12 42  1  0  0  0
 13 15  2  0  0  0
 13 43  1  0  0  0
 14 16  1  0  0  0
 14 17  2  0  0  0
 15 16  1  0  0  0
 15 44  1  0  0  0
 16 18  2  0  0  0
 17 19  1  0  0  0
 17 45  1  0  0  0
 18 20  1  0  0  0
 18 21  1  0  0  0
 19 22  1  0  0  0
 19 21  2  0  0  0
 20 23  2  0  0  0
 20 24  1  0  0  0
 21 46  1  0  0  0
 22 25  2  0  0  0
 22 26  1  0  0  0
 23 27  1  0  0  0
 23 47  1  0  0  0
 24 28  2  0  0  0
 24 48  1  0  0  0
 27 29  2  0  0  0
 27 49  1  0  0  0
 28 29  1  0  0  0
 28 50  1  0  0  0
 29 30  1  0  0  0
 30 31  1  0  0  0
 30 32  1  0  0  0
 30 51  1  0  0  0
 31 33  1  0  0  0
 31 34  1  0  0  0
 31 52  1  0  0  0
 32 35  1  0  0  0
 32 53  1  0  0  0
 32 54  1  0  0  0
 33 35  1  0  0  0
 33 55  1  0  0  0
 33 56  1  0  0  0
 34 36  1  0  0  0
 34 57  1  0  0  0
 34 58  1  0  0  0
 35 37  1  0  0  0
 35 59  1  0  0  0
 36 60  1  0  0  0
 37 61  1  0  0  0
 37 62  1  0  0  0
 37 63  1  0  0  0
M  CHG  2  26  -1  37   1
M  END
> <i_epik_Tot_Q>
0

> <i_epik_Tot_abs_Q>
2

> <i_lp_mmshare_version>
62121

> <i_m_Source_File_Index>
101

> <i_phase_Input_Structure_Number>
121

> <i_phase_Reference_Structure>
116

> <i_phase_Structure_Number>
121

> <Molecule Name>
171

> <Rotatable Bonds>
6

> <i_f3d_flags>
0

> <b_lp_Chiralities_Consistent>
1

> <r_canvas_IC50_human_P2Y14R,_nM>
10.8

> <r_canvas_pIC50>
7.96657624451305

> <r_epik_Charging_Adjusted_Penalty>
0.00127793507075051

> <r_epik_Ionization_Penalty>
  0.0013

> <r_epik_Ionization_Penalty_Charging>
  0.0013

> <r_epik_Ionization_Penalty_Neutral>
  0.0000

> <r_epik_State_Penalty>
  0.0000

> <r_lp_Energy>
70.238072

> <r_lp_tautomer_probability>
1

> <r_phase_Similarity_to_Reference>
0.786667856932231

> <s_canvas_CHEMBLID>
CHEMBL

> <s_canvas_Compound>
38

> <s_canvas_Paper>
Wen2022

> <s_epik_cmdline>
J2VwaWtfcHl0aG9uJywgJy1waCcsICc3LjAnLCAnLXRuJywgJzgnLCAnLW1hJywgJzUwMCcsICctaW1hZScsICc8aW5maWxlLm1hZT4nLCAnLW9tYWUnLCAnPG91dGZpbGUubWFlPic=

> <s_epik_input>
RkMoRikoRiljMVtjSF1bY0hdYyhbY0hdW2NIXTEpLWMoW2NIXTIpW2NIXVtjSF1jKGMyMyljKFtjSF1jKFtjSF0zKUMoPU8pW09IXSktYzRbY0hdW2NIXWMoW2NIXVtjSF00KVtDQEBIXTVbQ0BASF0oW0NIMl1bT0hdKVtDSDJdW0NASF0oW0NIMl01KVtOSDJd

> <s_lp_Force_Field>
S-OPLS

> <s_lp_Variant>
171-1

> <s_m_Source_File>
database-aligned.sdf

> <s_m_Source_Path>
/data/matteo/P2Y14-antagonists-piperidineDerivatives-Wen2023/14052024-optimized-alignment

> <s_m_entry_id>
101

> <s_m_entry_name>
database-aligned.101

> <s_m_job_name>
align_ligands_1

> <s_phase_Alignment_Method>
snapped core

> <s_phase_Alignment_Reason>


> <s_phase_Core_SMARTS>
A1A[A]AA1a2aaa(aa2)-a(aaa3)a(a34)aaa(a4)-a5aaaaa5

$$$$
172
                    3D
 Schrodinger Suite 2023-2.
 63 67  0  0  1  0            999 V2000
   -5.0261    1.4324    0.2838 F   0  0  0  0  0  0
   -4.4843    0.5364    1.1094 C   0  0  0  0  0  0
   -4.7261    0.9091    2.3654 F   0  0  0  0  0  0
   -5.0718   -0.6406    0.8904 F   0  0  0  0  0  0
   -2.9805    0.4435    0.8954 C   0  0  0  0  0  0
   -2.2992   -0.7723    1.1122 C   0  0  0  0  0  0
   -2.2454    1.5776    0.4941 C   0  0  0  0  0  0
   -0.9062   -0.8510    0.9207 C   0  0  0  0  0  0
   -0.8521    1.4946    0.3065 C   0  0  0  0  0  0
   -0.1610    0.2796    0.5158 C   0  0  0  0  0  0
    1.3001    0.1930    0.3226 C   0  0  0  0  0  0
    2.1524    1.2383    0.7416 C   0  0  0  0  0  0
    1.8847   -0.9390   -0.2850 C   0  0  0  0  0  0
    3.5501    1.1548    0.5712 C   0  0  0  0  0  0
    3.2777   -1.0307   -0.4622 C   0  0  0  0  0  0
    4.1320    0.0089   -0.0274 C   0  0  0  0  0  0
    4.3632    2.2211    1.0016 C   0  0  0  0  0  0
    5.5422   -0.0679   -0.1843 C   0  0  0  0  0  0
    5.7637    2.1649    0.8405 C   0  0  0  0  0  0
    6.2189   -1.2368   -0.7759 C   0  0  0  0  0  0
    6.3353    1.0178    0.2468 C   0  0  0  0  0  0
    6.6335    3.3065    1.2938 C   0  0  0  0  0  0
    6.9102   -1.1235   -1.9992 C   0  0  0  0  0  0
    6.1956   -2.4906   -0.1313 C   0  0  0  0  0  0
    7.8718    3.2234    1.1339 O   0  0  0  0  0  0
    6.0939    4.3069    1.8173 O   0  5  0  0  0  0
    7.5479   -2.2386   -2.5763 C   0  0  0  0  0  0
    6.8300   -3.6077   -0.7058 C   0  0  0  0  0  0
    7.5223   -3.4998   -1.9335 C   0  0  0  0  0  0
    8.1668   -4.7603   -2.5405 C   0  0  1  0  0  0
    9.1677   -4.5137   -3.6951 C   0  0  1  0  0  0
    9.1681   -5.4314   -1.5741 C   0  0  0  0  0  0
   10.3949   -3.8857   -3.0017 C   0  0  0  0  0  0
    9.4727   -5.7137   -4.6316 C   0  0  0  0  0  0
   10.3736   -4.4725   -1.5796 C   0  0  2  0  0  0
   10.4392   -6.6220   -4.1406 O   0  0  0  0  0  0
   11.6270   -5.1713   -1.2495 N   0  3  0  0  0  0
   -2.8412   -1.6507    1.4302 H   0  0  0  0  0  0
   -2.7465    2.5202    0.3305 H   0  0  0  0  0  0
   -0.4077   -1.7926    1.0990 H   0  0  0  0  0  0
   -0.3135    2.3772   -0.0064 H   0  0  0  0  0  0
    1.7299    2.1152    1.2108 H   0  0  0  0  0  0
    1.2615   -1.7513   -0.6289 H   0  0  0  0  0  0
    3.6724   -1.9143   -0.9400 H   0  0  0  0  0  0
    3.9030    3.0873    1.4553 H   0  0  0  0  0  0
    7.4069    0.9560    0.1219 H   0  0  0  0  0  0
    6.9432   -0.1715   -2.5091 H   0  0  0  0  0  0
    5.6730   -2.6013    0.8078 H   0  0  0  0  0  0
    8.0444   -2.0782   -3.5182 H   0  0  0  0  0  0
    6.7686   -4.5582   -0.1972 H   0  0  0  0  0  0
    7.3742   -5.4486   -2.8362 H   0  0  0  0  0  0
    8.7367   -3.7977   -4.3911 H   0  0  0  0  0  0
    8.7678   -5.5621   -0.5692 H   0  0  0  0  0  0
    9.4364   -6.4321   -1.9068 H   0  0  0  0  0  0
   11.3179   -4.1050   -3.5403 H   0  0  0  0  0  0
   10.3078   -2.7996   -2.9577 H   0  0  0  0  0  0
    8.5561   -6.2567   -4.8646 H   0  0  0  0  0  0
    9.8543   -5.3364   -5.5813 H   0  0  0  0  0  0
   10.2092   -3.6692   -0.8597 H   0  0  0  0  0  0
   10.5617   -7.3042   -4.7839 H   0  0  0  0  0  0
   11.7807   -5.9062   -1.9263 H   0  0  0  0  0  0
   11.5595   -5.5719   -0.3251 H   0  0  0  0  0  0
   12.3965   -4.5184   -1.2829 H   0  0  0  0  0  0
  1  2  1  0  0  0
  2  3  1  0  0  0
  2  4  1  0  0  0
  2  5  1  0  0  0
  5  6  2  0  0  0
  5  7  1  0  0  0
  6  8  1  0  0  0
  6 38  1  0  0  0
  7  9  2  0  0  0
  7 39  1  0  0  0
  8 10  2  0  0  0
  8 40  1  0  0  0
  9 10  1  0  0  0
  9 41  1  0  0  0
 10 11  1  0  0  0
 11 12  2  0  0  0
 11 13  1  0  0  0
 12 14  1  0  0  0
 12 42  1  0  0  0
 13 15  2  0  0  0
 13 43  1  0  0  0
 14 16  1  0  0  0
 14 17  2  0  0  0
 15 16  1  0  0  0
 15 44  1  0  0  0
 16 18  2  0  0  0
 17 19  1  0  0  0
 17 45  1  0  0  0
 18 20  1  0  0  0
 18 21  1  0  0  0
 19 22  1  0  0  0
 19 21  2  0  0  0
 20 23  2  0  0  0
 20 24  1  0  0  0
 21 46  1  0  0  0
 22 25  2  0  0  0
 22 26  1  0  0  0
 23 27  1  0  0  0
 23 47  1  0  0  0
 24 28  2  0  0  0
 24 48  1  0  0  0
 27 29  2  0  0  0
 27 49  1  0  0  0
 28 29  1  0  0  0
 28 50  1  0  0  0
 29 30  1  0  0  0
 30 31  1  0  0  0
 30 32  1  0  0  0
 30 51  1  0  0  0
 31 33  1  0  0  0
 31 34  1  0  0  0
 31 52  1  0  0  0
 32 35  1  0  0  0
 32 53  1  0  0  0
 32 54  1  0  0  0
 33 35  1  0  0  0
 33 55  1  0  0  0
 33 56  1  0  0  0
 34 36  1  0  0  0
 34 57  1  0  0  0
 34 58  1  0  0  0
 35 37  1  0  0  0
 35 59  1  0  0  0
 36 60  1  0  0  0
 37 61  1  0  0  0
 37 62  1  0  0  0
 37 63  1  0  0  0
M  CHG  2  26  -1  37   1
M  END
> <i_epik_Tot_Q>
0

> <i_epik_Tot_abs_Q>
2

> <i_lp_mmshare_version>
62121

> <i_m_Source_File_Index>
102

> <i_phase_Input_Structure_Number>
122

> <i_phase_Reference_Structure>
116

> <i_phase_Structure_Number>
122

> <Molecule Name>
172

> <Rotatable Bonds>
6

> <i_f3d_flags>
0

> <b_lp_Chiralities_Consistent>
1

> <r_canvas_IC50_human_P2Y14R,_nM>
12.6

> <r_canvas_pIC50>
7.89962945488244

> <r_epik_Charging_Adjusted_Penalty>
0.00127793507075051

> <r_epik_Ionization_Penalty>
  0.0013

> <r_epik_Ionization_Penalty_Charging>
  0.0013

> <r_epik_Ionization_Penalty_Neutral>
  0.0000

> <r_epik_State_Penalty>
  0.0000

> <r_lp_Energy>
70.419991

> <r_lp_tautomer_probability>
1

> <r_phase_Similarity_to_Reference>
0.787112994831037

> <s_canvas_CHEMBLID>
CHEMBL

> <s_canvas_Compound>
39

> <s_canvas_Paper>
Wen2022

> <s_epik_cmdline>
J2VwaWtfcHl0aG9uJywgJy1waCcsICc3LjAnLCAnLXRuJywgJzgnLCAnLW1hJywgJzUwMCcsICctaW1hZScsICc8aW5maWxlLm1hZT4nLCAnLW9tYWUnLCAnPG91dGZpbGUubWFlPic=

> <s_epik_input>
RkMoRikoRiljMVtjSF1bY0hdYyhbY0hdW2NIXTEpLWMoW2NIXTIpW2NIXVtjSF1jKGMyMyljKFtjSF1jKFtjSF0zKUMoPU8pW09IXSktYzRbY0hdW2NIXWMoW2NIXVtjSF00KVtDQEhdNVtDQEhdKFtDSDJdW09IXSlbQ0gyXVtDQEBIXShbQ0gyXTUpW05IMl0=

> <s_lp_Force_Field>
S-OPLS

> <s_lp_Variant>
172-1

> <s_m_Source_File>
database-aligned.sdf

> <s_m_Source_Path>
/data/matteo/P2Y14-antagonists-piperidineDerivatives-Wen2023/14052024-optimized-alignment

> <s_m_entry_id>
102

> <s_m_entry_name>
database-aligned.102

> <s_m_job_name>
align_ligands_1

> <s_phase_Alignment_Method>
snapped core

> <s_phase_Alignment_Reason>


> <s_phase_Core_SMARTS>
A1A[A]AA1a2aaa(aa2)-a(aaa3)a(a34)aaa(a4)-a5aaaaa5

$$$$
173
                    3D
 Schrodinger Suite 2023-2.
 63 67  0  0  1  0            999 V2000
   -5.0261    1.4324    0.2838 F   0  0  0  0  0  0
   -4.4843    0.5364    1.1094 C   0  0  0  0  0  0
   -4.7261    0.9091    2.3654 F   0  0  0  0  0  0
   -5.0718   -0.6406    0.8904 F   0  0  0  0  0  0
   -2.9805    0.4435    0.8954 C   0  0  0  0  0  0
   -2.2992   -0.7723    1.1122 C   0  0  0  0  0  0
   -2.2454    1.5776    0.4941 C   0  0  0  0  0  0
   -0.9062   -0.8510    0.9207 C   0  0  0  0  0  0
   -0.8521    1.4946    0.3065 C   0  0  0  0  0  0
   -0.1610    0.2796    0.5158 C   0  0  0  0  0  0
    1.3001    0.1930    0.3226 C   0  0  0  0  0  0
    2.1524    1.2383    0.7416 C   0  0  0  0  0  0
    1.8847   -0.9390   -0.2850 C   0  0  0  0  0  0
    3.5501    1.1548    0.5712 C   0  0  0  0  0  0
    3.2777   -1.0307   -0.4622 C   0  0  0  0  0  0
    4.1320    0.0089   -0.0274 C   0  0  0  0  0  0
    4.3632    2.2211    1.0016 C   0  0  0  0  0  0
    5.5422   -0.0679   -0.1843 C   0  0  0  0  0  0
    5.7637    2.1649    0.8405 C   0  0  0  0  0  0
    6.2189   -1.2368   -0.7759 C   0  0  0  0  0  0
    6.3353    1.0178    0.2468 C   0  0  0  0  0  0
    6.6335    3.3065    1.2938 C   0  0  0  0  0  0
    6.1956   -2.4906   -0.1313 C   0  0  0  0  0  0
    6.9102   -1.1235   -1.9992 C   0  0  0  0  0  0
    7.8718    3.2234    1.1339 O   0  0  0  0  0  0
    6.0939    4.3069    1.8173 O   0  5  0  0  0  0
    6.8300   -3.6077   -0.7058 C   0  0  0  0  0  0
    7.5479   -2.2386   -2.5763 C   0  0  0  0  0  0
    7.5223   -3.4998   -1.9335 C   0  0  0  0  0  0
    8.1668   -4.7603   -2.5405 C   0  0  1  0  0  0
    9.1677   -4.5137   -3.6951 C   0  0  2  0  0  0
    9.1681   -5.4314   -1.5741 C   0  0  0  0  0  0
    9.5429   -5.7588   -4.3985 N   0  3  0  0  0  0
   10.3949   -3.8857   -3.0017 C   0  0  0  0  0  0
   10.3736   -4.4725   -1.5796 C   0  0  2  0  0  0
   11.6826   -5.1625   -1.1605 C   0  0  0  0  0  0
   12.7275   -4.2171   -1.0802 O   0  0  0  0  0  0
   -2.8408   -1.6506    1.4312 H   0  0  0  0  0  0
   -2.7461    2.5205    0.3314 H   0  0  0  0  0  0
   -0.4077   -1.7925    1.0992 H   0  0  0  0  0  0
   -0.3135    2.3773   -0.0063 H   0  0  0  0  0  0
    1.7298    2.1153    1.2105 H   0  0  0  0  0  0
    1.2614   -1.7513   -0.6289 H   0  0  0  0  0  0
    3.6722   -1.9143   -0.9399 H   0  0  0  0  0  0
    3.9032    3.0876    1.4551 H   0  0  0  0  0  0
    7.4069    0.9557    0.1217 H   0  0  0  0  0  0
    5.6742   -2.6010    0.8085 H   0  0  0  0  0  0
    6.9433   -0.1714   -2.5090 H   0  0  0  0  0  0
    6.7707   -4.5578   -0.1961 H   0  0  0  0  0  0
    8.0468   -2.0915   -3.5202 H   0  0  0  0  0  0
    7.3733   -5.4480   -2.8360 H   0  0  0  0  0  0
    8.7533   -3.8697   -4.4691 H   0  0  0  0  0  0
    8.7694   -5.5738   -0.5700 H   0  0  0  0  0  0
    9.4560   -6.4235   -1.9246 H   0  0  0  0  0  0
    9.9671   -6.3958   -3.7378 H   0  0  0  0  0  0
   10.2088   -5.5467   -5.1276 H   0  0  0  0  0  0
   11.3184   -4.1068   -3.5390 H   0  0  0  0  0  0
   10.3085   -2.7998   -2.9554 H   0  0  0  0  0  0
   10.1676   -3.6632   -0.8765 H   0  0  0  0  0  0
   11.5651   -5.6322   -0.1835 H   0  0  0  0  0  0
   11.9569   -5.9470   -1.8665 H   0  0  0  0  0  0
   13.5087   -4.6550   -0.7776 H   0  0  0  0  0  0
    8.7218   -6.1852   -4.8022 H   0  0  0  0  0  0
  1  2  1  0  0  0
  2  3  1  0  0  0
  2  4  1  0  0  0
  2  5  1  0  0  0
  5  6  2  0  0  0
  5  7  1  0  0  0
  6  8  1  0  0  0
  6 38  1  0  0  0
  7  9  2  0  0  0
  7 39  1  0  0  0
  8 10  2  0  0  0
  8 40  1  0  0  0
  9 10  1  0  0  0
  9 41  1  0  0  0
 10 11  1  0  0  0
 11 12  2  0  0  0
 11 13  1  0  0  0
 12 14  1  0  0  0
 12 42  1  0  0  0
 13 15  2  0  0  0
 13 43  1  0  0  0
 14 16  1  0  0  0
 14 17  2  0  0  0
 15 16  1  0  0  0
 15 44  1  0  0  0
 16 18  2  0  0  0
 17 19  1  0  0  0
 17 45  1  0  0  0
 18 20  1  0  0  0
 18 21  1  0  0  0
 19 22  1  0  0  0
 19 21  2  0  0  0
 20 23  2  0  0  0
 20 24  1  0  0  0
 21 46  1  0  0  0
 22 25  2  0  0  0
 22 26  1  0  0  0
 23 27  1  0  0  0
 23 47  1  0  0  0
 24 28  2  0  0  0
 24 48  1  0  0  0
 27 29  2  0  0  0
 27 49  1  0  0  0
 28 29  1  0  0  0
 28 50  1  0  0  0
 29 30  1  0  0  0
 30 31  1  0  0  0
 30 32  1  0  0  0
 30 51  1  0  0  0
 31 33  1  0  0  0
 31 34  1  0  0  0
 31 52  1  0  0  0
 32 35  1  0  0  0
 32 53  1  0  0  0
 32 54  1  0  0  0
 33 55  1  0  0  0
 33 56  1  0  0  0
 33 63  1  0  0  0
 34 35  1  0  0  0
 34 57  1  0  0  0
 34 58  1  0  0  0
 35 36  1  0  0  0
 35 59  1  0  0  0
 36 37  1  0  0  0
 36 60  1  0  0  0
 36 61  1  0  0  0
 37 62  1  0  0  0
M  CHG  2  26  -1  33   1
M  END
> <i_epik_Tot_Q>
0

> <i_epik_Tot_abs_Q>
2

> <i_lp_mmshare_version>
62121

> <i_m_Source_File_Index>
103

> <i_phase_Input_Structure_Number>
123

> <i_phase_Reference_Structure>
116

> <i_phase_Structure_Number>
123

> <Molecule Name>
173

> <Rotatable Bonds>
6

> <i_f3d_flags>
0

> <b_lp_Chiralities_Consistent>
1

> <r_canvas_IC50_human_P2Y14R,_nM>
100

> <r_canvas_pIC50>
7

> <r_epik_Charging_Adjusted_Penalty>
0.00149693770908256

> <r_epik_Ionization_Penalty>
  0.0015

> <r_epik_Ionization_Penalty_Charging>
  0.0015

> <r_epik_Ionization_Penalty_Neutral>
  0.0000

> <r_epik_State_Penalty>
  0.0000

> <r_lp_Energy>
61.335259

> <r_lp_tautomer_probability>
1

> <r_phase_Similarity_to_Reference>
0.779746590525821

> <s_canvas_CHEMBLID>
CHEMBL

> <s_canvas_Compound>
40

> <s_canvas_Paper>
Wen2022

> <s_epik_cmdline>
J2VwaWtfcHl0aG9uJywgJy1waCcsICc3LjAnLCAnLXRuJywgJzgnLCAnLW1hJywgJzUwMCcsICctaW1hZScsICc8aW5maWxlLm1hZT4nLCAnLW9tYWUnLCAnPG91dGZpbGUubWFlPic=

> <s_epik_input>
RkMoRikoRiljMVtjSF1bY0hdYyhbY0hdW2NIXTEpLWMoW2NIXTIpW2NIXVtjSF1jKGMyMyljKFtjSF1jKFtjSF0zKUMoPU8pW09IXSktYzRbY0hdW2NIXWMoW2NIXVtjSF00KVtDQEhdNVtDQEhdKFtOSDJdKVtDSDJdW0NAQEhdKFtDSDJdNSlbQ0gyXVtPSF0=

> <s_lp_Force_Field>
S-OPLS

> <s_lp_Variant>
173-1

> <s_m_Source_File>
database-aligned.sdf

> <s_m_Source_Path>
/data/matteo/P2Y14-antagonists-piperidineDerivatives-Wen2023/14052024-optimized-alignment

> <s_m_entry_id>
103

> <s_m_entry_name>
database-aligned.103

> <s_m_job_name>
align_ligands_1

> <s_phase_Alignment_Method>
snapped core

> <s_phase_Alignment_Reason>


> <s_phase_Core_SMARTS>
A1A[A]AA1a2aaa(aa2)-a(aaa3)a(a34)aaa(a4)-a5aaaaa5

$$$$
174
                    3D
 Schrodinger Suite 2023-2.
 63 67  0  0  1  0            999 V2000
   -5.0261    1.4324    0.2838 F   0  0  0  0  0  0
   -4.4843    0.5364    1.1094 C   0  0  0  0  0  0
   -4.7261    0.9091    2.3654 F   0  0  0  0  0  0
   -5.0718   -0.6406    0.8904 F   0  0  0  0  0  0
   -2.9805    0.4435    0.8954 C   0  0  0  0  0  0
   -2.2992   -0.7723    1.1122 C   0  0  0  0  0  0
   -2.2454    1.5776    0.4941 C   0  0  0  0  0  0
   -0.9062   -0.8510    0.9207 C   0  0  0  0  0  0
   -0.8521    1.4946    0.3065 C   0  0  0  0  0  0
   -0.1610    0.2796    0.5158 C   0  0  0  0  0  0
    1.3001    0.1930    0.3226 C   0  0  0  0  0  0
    2.1524    1.2383    0.7416 C   0  0  0  0  0  0
    1.8847   -0.9390   -0.2850 C   0  0  0  0  0  0
    3.5501    1.1548    0.5712 C   0  0  0  0  0  0
    3.2777   -1.0307   -0.4622 C   0  0  0  0  0  0
    4.1320    0.0089   -0.0274 C   0  0  0  0  0  0
    4.3632    2.2211    1.0016 C   0  0  0  0  0  0
    5.5422   -0.0679   -0.1843 C   0  0  0  0  0  0
    5.7637    2.1649    0.8405 C   0  0  0  0  0  0
    6.2189   -1.2368   -0.7759 C   0  0  0  0  0  0
    6.3353    1.0178    0.2468 C   0  0  0  0  0  0
    6.6335    3.3065    1.2938 C   0  0  0  0  0  0
    6.9102   -1.1235   -1.9992 C   0  0  0  0  0  0
    6.1956   -2.4906   -0.1313 C   0  0  0  0  0  0
    7.8718    3.2234    1.1339 O   0  0  0  0  0  0
    6.0939    4.3069    1.8173 O   0  5  0  0  0  0
    7.5479   -2.2386   -2.5763 C   0  0  0  0  0  0
    6.8300   -3.6077   -0.7058 C   0  0  0  0  0  0
    7.5223   -3.4998   -1.9335 C   0  0  0  0  0  0
    8.1668   -4.7603   -2.5405 C   0  0  2  0  0  0
    9.1681   -5.4314   -1.5741 C   0  0  1  0  0  0
    9.1677   -4.5137   -3.6951 C   0  0  0  0  0  0
    9.5650   -6.7906   -1.9991 N   0  3  0  0  0  0
   10.3736   -4.4725   -1.5796 C   0  0  0  0  0  0
   10.3949   -3.8857   -3.0017 C   0  0  1  0  0  0
   11.7014   -4.1471   -3.7704 C   0  0  0  0  0  0
   12.7735   -3.4649   -3.1562 O   0  0  0  0  0  0
   -2.8408   -1.6506    1.4312 H   0  0  0  0  0  0
   -2.7461    2.5205    0.3313 H   0  0  0  0  0  0
   -0.4077   -1.7925    1.0992 H   0  0  0  0  0  0
   -0.3135    2.3773   -0.0064 H   0  0  0  0  0  0
    1.7298    2.1153    1.2106 H   0  0  0  0  0  0
    1.2614   -1.7512   -0.6291 H   0  0  0  0  0  0
    3.6721   -1.9142   -0.9403 H   0  0  0  0  0  0
    3.9032    3.0875    1.4551 H   0  0  0  0  0  0
    7.4069    0.9557    0.1215 H   0  0  0  0  0  0
    6.9426   -0.1718   -2.5097 H   0  0  0  0  0  0
    5.6733   -2.6010    0.8080 H   0  0  0  0  0  0
    8.0454   -2.0965   -3.5223 H   0  0  0  0  0  0
    6.7672   -4.5576   -0.1964 H   0  0  0  0  0  0
    7.3735   -5.4455   -2.8422 H   0  0  0  0  0  0
    8.7587   -5.5420   -0.5706 H   0  0  0  0  0  0
    9.4381   -5.4520   -4.1816 H   0  0  0  0  0  0
    8.7656   -3.8859   -4.4896 H   0  0  0  0  0  0
    9.9994   -6.7370   -2.9105 H   0  0  0  0  0  0
    8.7519   -7.3873   -2.0448 H   0  0  0  0  0  0
   10.2233   -3.6711   -0.8546 H   0  0  0  0  0  0
   11.3008   -4.9792   -1.3083 H   0  0  0  0  0  0
   10.2504   -2.8070   -2.9326 H   0  0  0  0  0  0
   11.9267   -5.2133   -3.8117 H   0  0  0  0  0  0
   11.6109   -3.7944   -4.7982 H   0  0  0  0  0  0
   13.5541   -3.6021   -3.6713 H   0  0  0  0  0  0
   10.2293   -7.1692   -1.3396 H   0  0  0  0  0  0
  1  2  1  0  0  0
  2  3  1  0  0  0
  2  4  1  0  0  0
  2  5  1  0  0  0
  5  6  2  0  0  0
  5  7  1  0  0  0
  6  8  1  0  0  0
  6 38  1  0  0  0
  7  9  2  0  0  0
  7 39  1  0  0  0
  8 10  2  0  0  0
  8 40  1  0  0  0
  9 10  1  0  0  0
  9 41  1  0  0  0
 10 11  1  0  0  0
 11 12  2  0  0  0
 11 13  1  0  0  0
 12 14  1  0  0  0
 12 42  1  0  0  0
 13 15  2  0  0  0
 13 43  1  0  0  0
 14 16  1  0  0  0
 14 17  2  0  0  0
 15 16  1  0  0  0
 15 44  1  0  0  0
 16 18  2  0  0  0
 17 19  1  0  0  0
 17 45  1  0  0  0
 18 20  1  0  0  0
 18 21  1  0  0  0
 19 22  1  0  0  0
 19 21  2  0  0  0
 20 23  2  0  0  0
 20 24  1  0  0  0
 21 46  1  0  0  0
 22 25  2  0  0  0
 22 26  1  0  0  0
 23 27  1  0  0  0
 23 47  1  0  0  0
 24 28  2  0  0  0
 24 48  1  0  0  0
 27 29  2  0  0  0
 27 49  1  0  0  0
 28 29  1  0  0  0
 28 50  1  0  0  0
 29 30  1  0  0  0
 30 31  1  0  0  0
 30 32  1  0  0  0
 30 51  1  0  0  0
 31 33  1  0  0  0
 31 34  1  0  0  0
 31 52  1  0  0  0
 32 35  1  0  0  0
 32 53  1  0  0  0
 32 54  1  0  0  0
 33 55  1  0  0  0
 33 56  1  0  0  0
 33 63  1  0  0  0
 34 35  1  0  0  0
 34 57  1  0  0  0
 34 58  1  0  0  0
 35 36  1  0  0  0
 35 59  1  0  0  0
 36 37  1  0  0  0
 36 60  1  0  0  0
 36 61  1  0  0  0
 37 62  1  0  0  0
M  CHG  2  26  -1  33   1
M  END
> <i_epik_Tot_Q>
0

> <i_epik_Tot_abs_Q>
2

> <i_lp_mmshare_version>
62121

> <i_m_Source_File_Index>
104

> <i_phase_Input_Structure_Number>
124

> <i_phase_Reference_Structure>
116

> <i_phase_Structure_Number>
124

> <Molecule Name>
174

> <Rotatable Bonds>
6

> <i_f3d_flags>
0

> <b_lp_Chiralities_Consistent>
1

> <r_canvas_IC50_human_P2Y14R,_nM>
125

> <r_canvas_pIC50>
6.90308998699194

> <r_epik_Charging_Adjusted_Penalty>
0.00149693770908256

> <r_epik_Ionization_Penalty>
  0.0015

> <r_epik_Ionization_Penalty_Charging>
  0.0015

> <r_epik_Ionization_Penalty_Neutral>
  0.0000

> <r_epik_State_Penalty>
  0.0000

> <r_lp_Energy>
60.356444

> <r_lp_tautomer_probability>
1

> <r_phase_Similarity_to_Reference>
0.779776560402086

> <s_canvas_CHEMBLID>
CHEMBL

> <s_canvas_Compound>
41

> <s_canvas_Paper>
Wen2022

> <s_epik_cmdline>
J2VwaWtfcHl0aG9uJywgJy1waCcsICc3LjAnLCAnLXRuJywgJzgnLCAnLW1hJywgJzUwMCcsICctaW1hZScsICc8aW5maWxlLm1hZT4nLCAnLW9tYWUnLCAnPG91dGZpbGUubWFlPic=

> <s_epik_input>
RkMoRikoRiljMVtjSF1bY0hdYyhbY0hdW2NIXTEpLWMoW2NIXTIpW2NIXVtjSF1jKGMyMyljKFtjSF1jKFtjSF0zKUMoPU8pW09IXSktYzRbY0hdW2NIXWMoW2NIXVtjSF00KVtDQEBIXTVbQ0BASF0oW05IMl0pW0NIMl1bQ0BIXShbQ0gyXTUpW0NIMl1bT0hd

> <s_lp_Force_Field>
S-OPLS

> <s_lp_Variant>
174-1

> <s_m_Source_File>
database-aligned.sdf

> <s_m_Source_Path>
/data/matteo/P2Y14-antagonists-piperidineDerivatives-Wen2023/14052024-optimized-alignment

> <s_m_entry_id>
104

> <s_m_entry_name>
database-aligned.104

> <s_m_job_name>
align_ligands_1

> <s_phase_Alignment_Method>
snapped core

> <s_phase_Alignment_Reason>


> <s_phase_Core_SMARTS>
A1A[A]AA1a2aaa(aa2)-a(aaa3)a(a34)aaa(a4)-a5aaaaa5

$$$$
175
                    3D
 Schrodinger Suite 2023-2.
 61 65  0  0  1  0            999 V2000
   -5.0261    1.4324    0.2838 F   0  0  0  0  0  0
   -4.4843    0.5364    1.1094 C   0  0  0  0  0  0
   -4.7261    0.9091    2.3654 F   0  0  0  0  0  0
   -5.0718   -0.6406    0.8904 F   0  0  0  0  0  0
   -2.9805    0.4435    0.8954 C   0  0  0  0  0  0
   -2.2992   -0.7723    1.1122 C   0  0  0  0  0  0
   -2.2454    1.5776    0.4941 C   0  0  0  0  0  0
   -0.9062   -0.8510    0.9207 C   0  0  0  0  0  0
   -0.8521    1.4946    0.3065 C   0  0  0  0  0  0
   -0.1610    0.2796    0.5158 C   0  0  0  0  0  0
    1.3001    0.1930    0.3226 C   0  0  0  0  0  0
    2.1524    1.2383    0.7416 C   0  0  0  0  0  0
    1.8847   -0.9390   -0.2850 C   0  0  0  0  0  0
    3.5501    1.1548    0.5712 C   0  0  0  0  0  0
    3.2777   -1.0307   -0.4622 C   0  0  0  0  0  0
    4.1320    0.0089   -0.0274 C   0  0  0  0  0  0
    4.3632    2.2211    1.0016 C   0  0  0  0  0  0
    5.5422   -0.0679   -0.1843 C   0  0  0  0  0  0
    5.7637    2.1649    0.8405 C   0  0  0  0  0  0
    6.2189   -1.2368   -0.7759 C   0  0  0  0  0  0
    6.3353    1.0178    0.2468 C   0  0  0  0  0  0
    6.6335    3.3065    1.2938 C   0  0  0  0  0  0
    6.9102   -1.1235   -1.9992 C   0  0  0  0  0  0
    6.1956   -2.4906   -0.1313 C   0  0  0  0  0  0
    7.8718    3.2234    1.1339 O   0  0  0  0  0  0
    6.0939    4.3069    1.8173 O   0  5  0  0  0  0
    7.5479   -2.2386   -2.5763 C   0  0  0  0  0  0
    6.8300   -3.6077   -0.7058 C   0  0  0  0  0  0
    7.5223   -3.4998   -1.9335 C   0  0  0  0  0  0
    8.1668   -4.7603   -2.5405 C   0  0  2  0  0  0
    9.1681   -5.4314   -1.5741 C   0  0  1  0  0  0
    9.1677   -4.5137   -3.6951 C   0  0  0  0  0  0
    9.5051   -6.8892   -1.9632 C   0  0  0  0  0  0
   10.3736   -4.4725   -1.5796 C   0  0  0  0  0  0
   10.3949   -3.8857   -3.0017 C   0  0  1  0  0  0
    8.5684   -7.7141   -1.9015 O   0  0  0  0  0  0
   10.6723   -7.1548   -2.3290 O   0  5  0  0  0  0
   11.6427   -4.2121   -3.7131 N   0  3  0  0  0  0
   -2.8409   -1.6505    1.4313 H   0  0  0  0  0  0
   -2.7463    2.5204    0.3313 H   0  0  0  0  0  0
   -0.4077   -1.7925    1.0994 H   0  0  0  0  0  0
   -0.3136    2.3773   -0.0065 H   0  0  0  0  0  0
    1.7301    2.1153    1.2107 H   0  0  0  0  0  0
    1.2615   -1.7512   -0.6292 H   0  0  0  0  0  0
    3.6723   -1.9144   -0.9401 H   0  0  0  0  0  0
    3.9026    3.0872    1.4552 H   0  0  0  0  0  0
    7.4069    0.9552    0.1218 H   0  0  0  0  0  0
    6.9418   -0.1720   -2.5099 H   0  0  0  0  0  0
    5.6733   -2.6018    0.8078 H   0  0  0  0  0  0
    8.0453   -2.0979   -3.5223 H   0  0  0  0  0  0
    6.7678   -4.5587   -0.1980 H   0  0  0  0  0  0
    7.3721   -5.4400   -2.8520 H   0  0  0  0  0  0
    8.7666   -5.4988   -0.5634 H   0  0  0  0  0  0
    9.4330   -5.4480   -4.1924 H   0  0  0  0  0  0
    8.7641   -3.8832   -4.4865 H   0  0  0  0  0  0
   10.2116   -3.6738   -0.8543 H   0  0  0  0  0  0
   11.3118   -4.9524   -1.2971 H   0  0  0  0  0  0
   10.3001   -2.8007   -2.9541 H   0  0  0  0  0  0
   11.7494   -5.2172   -3.7415 H   0  0  0  0  0  0
   12.4269   -3.8061   -3.2238 H   0  0  0  0  0  0
   11.6028   -3.8497   -4.6545 H   0  0  0  0  0  0
  1  2  1  0  0  0
  2  3  1  0  0  0
  2  4  1  0  0  0
  2  5  1  0  0  0
  5  6  2  0  0  0
  5  7  1  0  0  0
  6  8  1  0  0  0
  6 39  1  0  0  0
  7  9  2  0  0  0
  7 40  1  0  0  0
  8 10  2  0  0  0
  8 41  1  0  0  0
  9 10  1  0  0  0
  9 42  1  0  0  0
 10 11  1  0  0  0
 11 12  2  0  0  0
 11 13  1  0  0  0
 12 14  1  0  0  0
 12 43  1  0  0  0
 13 15  2  0  0  0
 13 44  1  0  0  0
 14 16  1  0  0  0
 14 17  2  0  0  0
 15 16  1  0  0  0
 15 45  1  0  0  0
 16 18  2  0  0  0
 17 19  1  0  0  0
 17 46  1  0  0  0
 18 20  1  0  0  0
 18 21  1  0  0  0
 19 22  1  0  0  0
 19 21  2  0  0  0
 20 23  2  0  0  0
 20 24  1  0  0  0
 21 47  1  0  0  0
 22 25  2  0  0  0
 22 26  1  0  0  0
 23 27  1  0  0  0
 23 48  1  0  0  0
 24 28  2  0  0  0
 24 49  1  0  0  0
 27 29  2  0  0  0
 27 50  1  0  0  0
 28 29  1  0  0  0
 28 51  1  0  0  0
 29 30  1  0  0  0
 30 31  1  0  0  0
 30 32  1  0  0  0
 30 52  1  0  0  0
 31 33  1  0  0  0
 31 34  1  0  0  0
 31 53  1  0  0  0
 32 35  1  0  0  0
 32 54  1  0  0  0
 32 55  1  0  0  0
 33 36  2  0  0  0
 33 37  1  0  0  0
 34 35  1  0  0  0
 34 56  1  0  0  0
 34 57  1  0  0  0
 35 38  1  0  0  0
 35 58  1  0  0  0
 38 59  1  0  0  0
 38 60  1  0  0  0
 38 61  1  0  0  0
M  CHG  3  26  -1  37  -1  38   1
M  END
> <i_epik_Tot_Q>
-1

> <i_epik_Tot_abs_Q>
3

> <i_lp_mmshare_version>
62121

> <i_m_Source_File_Index>
105

> <i_phase_Input_Structure_Number>
125

> <i_phase_Reference_Structure>
116

> <i_phase_Structure_Number>
125

> <Molecule Name>
175

> <Rotatable Bonds>
6

> <i_f3d_flags>
0

> <b_lp_Chiralities_Consistent>
1

> <r_canvas_IC50_human_P2Y14R,_nM>
49.6

> <r_canvas_pIC50>
7.3045183235098

> <r_epik_Charging_Adjusted_Penalty>
0.00177026570885156

> <r_epik_Ionization_Penalty>
  0.0018

> <r_epik_Ionization_Penalty_Charging>
  0.0018

> <r_epik_Ionization_Penalty_Neutral>
  0.0000

> <r_epik_State_Penalty>
  0.0000

> <r_lp_Energy>
66.616432

> <r_lp_tautomer_probability>
1

> <r_phase_Similarity_to_Reference>
0.781312624095795

> <s_canvas_CHEMBLID>
CHEMBL

> <s_canvas_Compound>
42

> <s_canvas_Paper>
Wen2022

> <s_epik_cmdline>
J2VwaWtfcHl0aG9uJywgJy1waCcsICc3LjAnLCAnLXRuJywgJzgnLCAnLW1hJywgJzUwMCcsICctaW1hZScsICc8aW5maWxlLm1hZT4nLCAnLW9tYWUnLCAnPG91dGZpbGUubWFlPic=

> <s_epik_input>
RkMoRikoRiljMVtjSF1bY0hdYyhbY0hdW2NIXTEpLWMoW2NIXTIpW2NIXVtjSF1jKGMyMyljKFtjSF1jKFtjSF0zKUMoPU8pW09IXSktYzRbY0hdW2NIXWMoW2NIXVtjSF00KVtDQEBIXTVbQ0BASF0oQyg9TylbT0hdKVtDSDJdW0NASF0oW0NIMl01KVtOSDJd

> <s_lp_Force_Field>
S-OPLS

> <s_lp_Variant>
175-1

> <s_m_Source_File>
database-aligned.sdf

> <s_m_Source_Path>
/data/matteo/P2Y14-antagonists-piperidineDerivatives-Wen2023/14052024-optimized-alignment

> <s_m_entry_id>
105

> <s_m_entry_name>
database-aligned.105

> <s_m_job_name>
align_ligands_1

> <s_phase_Alignment_Method>
snapped core

> <s_phase_Alignment_Reason>


> <s_phase_Core_SMARTS>
A1A[A]AA1a2aaa(aa2)-a(aaa3)a(a34)aaa(a4)-a5aaaaa5

$$$$
176
                    3D
 Schrodinger Suite 2023-2.
 61 65  0  0  1  0            999 V2000
   -5.0261    1.4324    0.2838 F   0  0  0  0  0  0
   -4.4843    0.5364    1.1094 C   0  0  0  0  0  0
   -4.7261    0.9091    2.3654 F   0  0  0  0  0  0
   -5.0718   -0.6406    0.8904 F   0  0  0  0  0  0
   -2.9805    0.4435    0.8954 C   0  0  0  0  0  0
   -2.2992   -0.7723    1.1122 C   0  0  0  0  0  0
   -2.2454    1.5776    0.4941 C   0  0  0  0  0  0
   -0.9062   -0.8510    0.9207 C   0  0  0  0  0  0
   -0.8521    1.4946    0.3065 C   0  0  0  0  0  0
   -0.1610    0.2796    0.5158 C   0  0  0  0  0  0
    1.3001    0.1930    0.3226 C   0  0  0  0  0  0
    2.1524    1.2383    0.7416 C   0  0  0  0  0  0
    1.8847   -0.9390   -0.2850 C   0  0  0  0  0  0
    3.5501    1.1548    0.5712 C   0  0  0  0  0  0
    3.2777   -1.0307   -0.4622 C   0  0  0  0  0  0
    4.1320    0.0089   -0.0274 C   0  0  0  0  0  0
    4.3632    2.2211    1.0016 C   0  0  0  0  0  0
    5.5422   -0.0679   -0.1843 C   0  0  0  0  0  0
    5.7637    2.1649    0.8405 C   0  0  0  0  0  0
    6.2189   -1.2368   -0.7759 C   0  0  0  0  0  0
    6.3353    1.0178    0.2468 C   0  0  0  0  0  0
    6.6335    3.3065    1.2938 C   0  0  0  0  0  0
    6.9102   -1.1235   -1.9992 C   0  0  0  0  0  0
    6.1956   -2.4906   -0.1313 C   0  0  0  0  0  0
    7.8718    3.2234    1.1339 O   0  0  0  0  0  0
    6.0939    4.3069    1.8173 O   0  5  0  0  0  0
    7.5479   -2.2386   -2.5763 C   0  0  0  0  0  0
    6.8300   -3.6077   -0.7058 C   0  0  0  0  0  0
    7.5223   -3.4998   -1.9335 C   0  0  0  0  0  0
    8.1668   -4.7603   -2.5405 C   0  0  1  0  0  0
    9.1677   -4.5137   -3.6951 C   0  0  2  0  0  0
    9.1681   -5.4314   -1.5741 C   0  0  0  0  0  0
    9.4805   -5.8016   -4.4939 C   0  0  0  0  0  0
   10.3949   -3.8857   -3.0017 C   0  0  0  0  0  0
   10.3736   -4.4725   -1.5796 C   0  0  2  0  0  0
   10.6407   -6.2690   -4.4473 O   0  0  0  0  0  0
    8.5313   -6.3079   -5.1305 O   0  5  0  0  0  0
   11.6270   -5.1713   -1.2495 N   0  3  0  0  0  0
   -2.8413   -1.6502    1.4313 H   0  0  0  0  0  0
   -2.7466    2.5203    0.3318 H   0  0  0  0  0  0
   -0.4077   -1.7925    1.0993 H   0  0  0  0  0  0
   -0.3134    2.3772   -0.0063 H   0  0  0  0  0  0
    1.7297    2.1150    1.2109 H   0  0  0  0  0  0
    1.2615   -1.7513   -0.6290 H   0  0  0  0  0  0
    3.6726   -1.9142   -0.9402 H   0  0  0  0  0  0
    3.9033    3.0876    1.4552 H   0  0  0  0  0  0
    7.4070    0.9566    0.1220 H   0  0  0  0  0  0
    6.9427   -0.1720   -2.5100 H   0  0  0  0  0  0
    5.6728   -2.6017    0.8075 H   0  0  0  0  0  0
    8.0445   -2.0895   -3.5210 H   0  0  0  0  0  0
    6.7688   -4.5586   -0.1980 H   0  0  0  0  0  0
    7.3717   -5.4516   -2.8243 H   0  0  0  0  0  0
    8.7621   -3.8355   -4.4443 H   0  0  0  0  0  0
    8.7675   -5.5683   -0.5701 H   0  0  0  0  0  0
    9.4507   -6.4291   -1.9131 H   0  0  0  0  0  0
   11.3334   -4.0707   -3.5263 H   0  0  0  0  0  0
   10.2922   -2.8015   -2.9553 H   0  0  0  0  0  0
   10.2182   -3.6717   -0.8551 H   0  0  0  0  0  0
   11.7807   -5.9062   -1.9263 H   0  0  0  0  0  0
   11.5595   -5.5719   -0.3251 H   0  0  0  0  0  0
   12.3965   -4.5184   -1.2829 H   0  0  0  0  0  0
  1  2  1  0  0  0
  2  3  1  0  0  0
  2  4  1  0  0  0
  2  5  1  0  0  0
  5  6  2  0  0  0
  5  7  1  0  0  0
  6  8  1  0  0  0
  6 39  1  0  0  0
  7  9  2  0  0  0
  7 40  1  0  0  0
  8 10  2  0  0  0
  8 41  1  0  0  0
  9 10  1  0  0  0
  9 42  1  0  0  0
 10 11  1  0  0  0
 11 12  2  0  0  0
 11 13  1  0  0  0
 12 14  1  0  0  0
 12 43  1  0  0  0
 13 15  2  0  0  0
 13 44  1  0  0  0
 14 16  1  0  0  0
 14 17  2  0  0  0
 15 16  1  0  0  0
 15 45  1  0  0  0
 16 18  2  0  0  0
 17 19  1  0  0  0
 17 46  1  0  0  0
 18 20  1  0  0  0
 18 21  1  0  0  0
 19 22  1  0  0  0
 19 21  2  0  0  0
 20 23  2  0  0  0
 20 24  1  0  0  0
 21 47  1  0  0  0
 22 25  2  0  0  0
 22 26  1  0  0  0
 23 27  1  0  0  0
 23 48  1  0  0  0
 24 28  2  0  0  0
 24 49  1  0  0  0
 27 29  2  0  0  0
 27 50  1  0  0  0
 28 29  1  0  0  0
 28 51  1  0  0  0
 29 30  1  0  0  0
 30 31  1  0  0  0
 30 32  1  0  0  0
 30 52  1  0  0  0
 31 33  1  0  0  0
 31 34  1  0  0  0
 31 53  1  0  0  0
 32 35  1  0  0  0
 32 54  1  0  0  0
 32 55  1  0  0  0
 33 36  2  0  0  0
 33 37  1  0  0  0
 34 35  1  0  0  0
 34 56  1  0  0  0
 34 57  1  0  0  0
 35 38  1  0  0  0
 35 58  1  0  0  0
 38 59  1  0  0  0
 38 60  1  0  0  0
 38 61  1  0  0  0
M  CHG  3  26  -1  37  -1  38   1
M  END
> <i_epik_Tot_Q>
-1

> <i_epik_Tot_abs_Q>
3

> <i_lp_mmshare_version>
62121

> <i_m_Source_File_Index>
106

> <i_phase_Input_Structure_Number>
126

> <i_phase_Reference_Structure>
116

> <i_phase_Structure_Number>
126

> <Molecule Name>
176

> <Rotatable Bonds>
6

> <i_f3d_flags>
0

> <b_lp_Chiralities_Consistent>
1

> <r_canvas_IC50_human_P2Y14R,_nM>
102

> <r_canvas_pIC50>
6.99139982823808

> <r_epik_Charging_Adjusted_Penalty>
0.00177026570885156

> <r_epik_Ionization_Penalty>
  0.0018

> <r_epik_Ionization_Penalty_Charging>
  0.0018

> <r_epik_Ionization_Penalty_Neutral>
  0.0000

> <r_epik_State_Penalty>
  0.0000

> <r_lp_Energy>
64.165248

> <r_lp_tautomer_probability>
1

> <r_phase_Similarity_to_Reference>
0.781106068966226

> <s_canvas_CHEMBLID>
CHEMBL

> <s_canvas_Compound>
43

> <s_canvas_Paper>
Wen2022

> <s_epik_cmdline>
J2VwaWtfcHl0aG9uJywgJy1waCcsICc3LjAnLCAnLXRuJywgJzgnLCAnLW1hJywgJzUwMCcsICctaW1hZScsICc8aW5maWxlLm1hZT4nLCAnLW9tYWUnLCAnPG91dGZpbGUubWFlPic=

> <s_epik_input>
RkMoRikoRiljMVtjSF1bY0hdYyhbY0hdW2NIXTEpLWMoW2NIXTIpW2NIXVtjSF1jKGMyMyljKFtjSF1jKFtjSF0zKUMoPU8pW09IXSktYzRbY0hdW2NIXWMoW2NIXVtjSF00KVtDQEhdNVtDQEhdKEMoPU8pW09IXSlbQ0gyXVtDQEBIXShbQ0gyXTUpW05IMl0=

> <s_lp_Force_Field>
S-OPLS

> <s_lp_Variant>
176-1

> <s_m_Source_File>
database-aligned.sdf

> <s_m_Source_Path>
/data/matteo/P2Y14-antagonists-piperidineDerivatives-Wen2023/14052024-optimized-alignment

> <s_m_entry_id>
106

> <s_m_entry_name>
database-aligned.106

> <s_m_job_name>
align_ligands_1

> <s_phase_Alignment_Method>
snapped core

> <s_phase_Alignment_Reason>


> <s_phase_Core_SMARTS>
A1A[A]AA1a2aaa(aa2)-a(aaa3)a(a34)aaa(a4)-a5aaaaa5

$$$$
177
                    3D
 Schrodinger Suite 2023-2.
 61 65  0  0  1  0            999 V2000
   -5.0261    1.4324    0.2838 F   0  0  0  0  0  0
   -4.4843    0.5364    1.1094 C   0  0  0  0  0  0
   -4.7261    0.9091    2.3654 F   0  0  0  0  0  0
   -5.0718   -0.6406    0.8904 F   0  0  0  0  0  0
   -2.9805    0.4435    0.8954 C   0  0  0  0  0  0
   -2.2992   -0.7723    1.1122 C   0  0  0  0  0  0
   -2.2454    1.5776    0.4941 C   0  0  0  0  0  0
   -0.9062   -0.8510    0.9207 C   0  0  0  0  0  0
   -0.8521    1.4946    0.3065 C   0  0  0  0  0  0
   -0.1610    0.2796    0.5158 C   0  0  0  0  0  0
    1.3001    0.1930    0.3226 C   0  0  0  0  0  0
    2.1524    1.2383    0.7416 C   0  0  0  0  0  0
    1.8847   -0.9390   -0.2850 C   0  0  0  0  0  0
    3.5501    1.1548    0.5712 C   0  0  0  0  0  0
    3.2777   -1.0307   -0.4622 C   0  0  0  0  0  0
    4.1320    0.0089   -0.0274 C   0  0  0  0  0  0
    4.3632    2.2211    1.0016 C   0  0  0  0  0  0
    5.5422   -0.0679   -0.1843 C   0  0  0  0  0  0
    5.7637    2.1649    0.8405 C   0  0  0  0  0  0
    6.2189   -1.2368   -0.7759 C   0  0  0  0  0  0
    6.3353    1.0178    0.2468 C   0  0  0  0  0  0
    6.6335    3.3065    1.2938 C   0  0  0  0  0  0
    6.9102   -1.1235   -1.9992 C   0  0  0  0  0  0
    6.1956   -2.4906   -0.1313 C   0  0  0  0  0  0
    7.8718    3.2234    1.1339 O   0  0  0  0  0  0
    6.0939    4.3069    1.8173 O   0  5  0  0  0  0
    7.5479   -2.2386   -2.5763 C   0  0  0  0  0  0
    6.8300   -3.6077   -0.7058 C   0  0  0  0  0  0
    7.5223   -3.4998   -1.9335 C   0  0  0  0  0  0
    8.1668   -4.7603   -2.5405 C   0  0  1  0  0  0
    9.1677   -4.5137   -3.6951 C   0  0  2  0  0  0
    9.1681   -5.4314   -1.5741 C   0  0  0  0  0  0
    9.5429   -5.7588   -4.3985 N   0  3  0  0  0  0
   10.3949   -3.8857   -3.0017 C   0  0  0  0  0  0
   10.3736   -4.4725   -1.5796 C   0  0  2  0  0  0
   11.6663   -5.2477   -1.2852 C   0  0  0  0  0  0
   12.0065   -6.1392   -2.0961 O   0  0  0  0  0  0
   12.2905   -4.9344   -0.2491 O   0  5  0  0  0  0
   -2.8407   -1.6506    1.4310 H   0  0  0  0  0  0
   -2.7460    2.5204    0.3310 H   0  0  0  0  0  0
   -0.4078   -1.7926    1.0991 H   0  0  0  0  0  0
   -0.3135    2.3772   -0.0064 H   0  0  0  0  0  0
    1.7298    2.1154    1.2104 H   0  0  0  0  0  0
    1.2614   -1.7512   -0.6290 H   0  0  0  0  0  0
    3.6721   -1.9143   -0.9401 H   0  0  0  0  0  0
    3.9033    3.0875    1.4551 H   0  0  0  0  0  0
    7.4069    0.9554    0.1219 H   0  0  0  0  0  0
    6.9437   -0.1715   -2.5090 H   0  0  0  0  0  0
    5.6750   -2.6012    0.8088 H   0  0  0  0  0  0
    8.0473   -2.0929   -3.5202 H   0  0  0  0  0  0
    6.7713   -4.5577   -0.1959 H   0  0  0  0  0  0
    7.3736   -5.4484   -2.8357 H   0  0  0  0  0  0
    8.7598   -3.8616   -4.4660 H   0  0  0  0  0  0
    8.7654   -5.5550   -0.5692 H   0  0  0  0  0  0
    9.4263   -6.4367   -1.9117 H   0  0  0  0  0  0
    9.9671   -6.3958   -3.7378 H   0  0  0  0  0  0
   10.2088   -5.5467   -5.1276 H   0  0  0  0  0  0
   11.3156   -4.0723   -3.5578 H   0  0  0  0  0  0
   10.2902   -2.8022   -2.9441 H   0  0  0  0  0  0
   10.2332   -3.6751   -0.8474 H   0  0  0  0  0  0
    8.7218   -6.1852   -4.8022 H   0  0  0  0  0  0
  1  2  1  0  0  0
  2  3  1  0  0  0
  2  4  1  0  0  0
  2  5  1  0  0  0
  5  6  2  0  0  0
  5  7  1  0  0  0
  6  8  1  0  0  0
  6 39  1  0  0  0
  7  9  2  0  0  0
  7 40  1  0  0  0
  8 10  2  0  0  0
  8 41  1  0  0  0
  9 10  1  0  0  0
  9 42  1  0  0  0
 10 11  1  0  0  0
 11 12  2  0  0  0
 11 13  1  0  0  0
 12 14  1  0  0  0
 12 43  1  0  0  0
 13 15  2  0  0  0
 13 44  1  0  0  0
 14 16  1  0  0  0
 14 17  2  0  0  0
 15 16  1  0  0  0
 15 45  1  0  0  0
 16 18  2  0  0  0
 17 19  1  0  0  0
 17 46  1  0  0  0
 18 20  1  0  0  0
 18 21  1  0  0  0
 19 22  1  0  0  0
 19 21  2  0  0  0
 20 23  2  0  0  0
 20 24  1  0  0  0
 21 47  1  0  0  0
 22 25  2  0  0  0
 22 26  1  0  0  0
 23 27  1  0  0  0
 23 48  1  0  0  0
 24 28  2  0  0  0
 24 49  1  0  0  0
 27 29  2  0  0  0
 27 50  1  0  0  0
 28 29  1  0  0  0
 28 51  1  0  0  0
 29 30  1  0  0  0
 30 31  1  0  0  0
 30 32  1  0  0  0
 30 52  1  0  0  0
 31 33  1  0  0  0
 31 34  1  0  0  0
 31 53  1  0  0  0
 32 35  1  0  0  0
 32 54  1  0  0  0
 32 55  1  0  0  0
 33 56  1  0  0  0
 33 57  1  0  0  0
 33 61  1  0  0  0
 34 35  1  0  0  0
 34 58  1  0  0  0
 34 59  1  0  0  0
 35 36  1  0  0  0
 35 60  1  0  0  0
 36 37  2  0  0  0
 36 38  1  0  0  0
M  CHG  3  26  -1  33   1  38  -1
M  END
> <i_epik_Tot_Q>
-1

> <i_epik_Tot_abs_Q>
3

> <i_lp_mmshare_version>
62121

> <i_m_Source_File_Index>
107

> <i_phase_Input_Structure_Number>
127

> <i_phase_Reference_Structure>
116

> <i_phase_Structure_Number>
127

> <Molecule Name>
177

> <Rotatable Bonds>
6

> <i_f3d_flags>
0

> <b_lp_Chiralities_Consistent>
1

> <r_canvas_IC50_human_P2Y14R,_nM>
165

> <r_canvas_pIC50>
6.78251605578609

> <r_epik_Charging_Adjusted_Penalty>
0.00139983320876408

> <r_epik_Ionization_Penalty>
  0.0014

> <r_epik_Ionization_Penalty_Charging>
  0.0014

> <r_epik_Ionization_Penalty_Neutral>
  0.0000

> <r_epik_State_Penalty>
  0.0000

> <r_lp_Energy>
66.171729

> <r_lp_tautomer_probability>
1

> <r_phase_Similarity_to_Reference>
0.77782210156506

> <s_canvas_CHEMBLID>
CHEMBL

> <s_canvas_Compound>
44

> <s_canvas_Paper>
Wen2022

> <s_epik_cmdline>
J2VwaWtfcHl0aG9uJywgJy1waCcsICc3LjAnLCAnLXRuJywgJzgnLCAnLW1hJywgJzUwMCcsICctaW1hZScsICc8aW5maWxlLm1hZT4nLCAnLW9tYWUnLCAnPG91dGZpbGUubWFlPic=

> <s_epik_input>
RkMoRikoRiljMVtjSF1bY0hdYyhbY0hdW2NIXTEpLWMoW2NIXTIpW2NIXVtjSF1jKGMyMyljKFtjSF1jKFtjSF0zKUMoPU8pW09IXSktYzRbY0hdW2NIXWMoW2NIXVtjSF00KVtDQEhdNVtDQEhdKFtOSDJdKVtDSDJdW0NAQEhdKFtDSDJdNSlDKD1PKVtPSF0=

> <s_lp_Force_Field>
S-OPLS

> <s_lp_Variant>
177-1

> <s_m_Source_File>
database-aligned.sdf

> <s_m_Source_Path>
/data/matteo/P2Y14-antagonists-piperidineDerivatives-Wen2023/14052024-optimized-alignment

> <s_m_entry_id>
107

> <s_m_entry_name>
database-aligned.107

> <s_m_job_name>
align_ligands_1

> <s_phase_Alignment_Method>
snapped core

> <s_phase_Alignment_Reason>


> <s_phase_Core_SMARTS>
A1A[A]AA1a2aaa(aa2)-a(aaa3)a(a34)aaa(a4)-a5aaaaa5

$$$$
178
                    3D
 Schrodinger Suite 2023-2.
 61 65  0  0  1  0            999 V2000
   -5.0261    1.4324    0.2838 F   0  0  0  0  0  0
   -4.4843    0.5364    1.1094 C   0  0  0  0  0  0
   -4.7261    0.9091    2.3654 F   0  0  0  0  0  0
   -5.0718   -0.6406    0.8904 F   0  0  0  0  0  0
   -2.9805    0.4435    0.8954 C   0  0  0  0  0  0
   -2.2992   -0.7723    1.1122 C   0  0  0  0  0  0
   -2.2454    1.5776    0.4941 C   0  0  0  0  0  0
   -0.9062   -0.8510    0.9207 C   0  0  0  0  0  0
   -0.8521    1.4946    0.3065 C   0  0  0  0  0  0
   -0.1610    0.2796    0.5158 C   0  0  0  0  0  0
    1.3001    0.1930    0.3226 C   0  0  0  0  0  0
    2.1524    1.2383    0.7416 C   0  0  0  0  0  0
    1.8847   -0.9390   -0.2850 C   0  0  0  0  0  0
    3.5501    1.1548    0.5712 C   0  0  0  0  0  0
    3.2777   -1.0307   -0.4622 C   0  0  0  0  0  0
    4.1320    0.0089   -0.0274 C   0  0  0  0  0  0
    4.3632    2.2211    1.0016 C   0  0  0  0  0  0
    5.5422   -0.0679   -0.1843 C   0  0  0  0  0  0
    5.7637    2.1649    0.8405 C   0  0  0  0  0  0
    6.2189   -1.2368   -0.7759 C   0  0  0  0  0  0
    6.3353    1.0178    0.2468 C   0  0  0  0  0  0
    6.6335    3.3065    1.2938 C   0  0  0  0  0  0
    6.1956   -2.4906   -0.1313 C   0  0  0  0  0  0
    6.9102   -1.1235   -1.9992 C   0  0  0  0  0  0
    7.8718    3.2234    1.1339 O   0  0  0  0  0  0
    6.0939    4.3069    1.8173 O   0  5  0  0  0  0
    6.8300   -3.6077   -0.7058 C   0  0  0  0  0  0
    7.5479   -2.2386   -2.5763 C   0  0  0  0  0  0
    7.5223   -3.4998   -1.9335 C   0  0  0  0  0  0
    8.1668   -4.7603   -2.5405 C   0  0  2  0  0  0
    9.1681   -5.4314   -1.5741 C   0  0  1  0  0  0
    9.1677   -4.5137   -3.6951 C   0  0  0  0  0  0
    9.5650   -6.7906   -1.9991 N   0  3  0  0  0  0
   10.3736   -4.4725   -1.5796 C   0  0  0  0  0  0
   10.3949   -3.8857   -3.0017 C   0  0  1  0  0  0
   11.6804   -4.2860   -3.7419 C   0  0  0  0  0  0
   11.9857   -5.5002   -3.7620 O   0  0  0  0  0  0
   12.3328   -3.3659   -4.2795 O   0  5  0  0  0  0
   -2.8407   -1.6507    1.4313 H   0  0  0  0  0  0
   -2.7460    2.5206    0.3310 H   0  0  0  0  0  0
   -0.4077   -1.7925    1.0993 H   0  0  0  0  0  0
   -0.3135    2.3772   -0.0066 H   0  0  0  0  0  0
    1.7299    2.1153    1.2105 H   0  0  0  0  0  0
    1.2614   -1.7511   -0.6293 H   0  0  0  0  0  0
    3.6720   -1.9142   -0.9405 H   0  0  0  0  0  0
    3.9030    3.0876    1.4552 H   0  0  0  0  0  0
    7.4070    0.9556    0.1213 H   0  0  0  0  0  0
    5.6736   -2.6011    0.8081 H   0  0  0  0  0  0
    6.9435   -0.1719   -2.5097 H   0  0  0  0  0  0
    6.7682   -4.5578   -0.1967 H   0  0  0  0  0  0
    8.0479   -2.0953   -3.5208 H   0  0  0  0  0  0
    7.3738   -5.4456   -2.8426 H   0  0  0  0  0  0
    8.7642   -5.5359   -0.5678 H   0  0  0  0  0  0
    9.4089   -5.4511   -4.1997 H   0  0  0  0  0  0
    8.7612   -3.8743   -4.4777 H   0  0  0  0  0  0
    9.9994   -6.7370   -2.9105 H   0  0  0  0  0  0
    8.7519   -7.3873   -2.0448 H   0  0  0  0  0  0
   10.2099   -3.6662   -0.8631 H   0  0  0  0  0  0
   11.2966   -4.9704   -1.2764 H   0  0  0  0  0  0
   10.3120   -2.7988   -2.9594 H   0  0  0  0  0  0
   10.2293   -7.1692   -1.3396 H   0  0  0  0  0  0
  1  2  1  0  0  0
  2  3  1  0  0  0
  2  4  1  0  0  0
  2  5  1  0  0  0
  5  6  2  0  0  0
  5  7  1  0  0  0
  6  8  1  0  0  0
  6 39  1  0  0  0
  7  9  2  0  0  0
  7 40  1  0  0  0
  8 10  2  0  0  0
  8 41  1  0  0  0
  9 10  1  0  0  0
  9 42  1  0  0  0
 10 11  1  0  0  0
 11 12  2  0  0  0
 11 13  1  0  0  0
 12 14  1  0  0  0
 12 43  1  0  0  0
 13 15  2  0  0  0
 13 44  1  0  0  0
 14 16  1  0  0  0
 14 17  2  0  0  0
 15 16  1  0  0  0
 15 45  1  0  0  0
 16 18  2  0  0  0
 17 19  1  0  0  0
 17 46  1  0  0  0
 18 20  1  0  0  0
 18 21  1  0  0  0
 19 22  1  0  0  0
 19 21  2  0  0  0
 20 23  2  0  0  0
 20 24  1  0  0  0
 21 47  1  0  0  0
 22 25  2  0  0  0
 22 26  1  0  0  0
 23 27  1  0  0  0
 23 48  1  0  0  0
 24 28  2  0  0  0
 24 49  1  0  0  0
 27 29  2  0  0  0
 27 50  1  0  0  0
 28 29  1  0  0  0
 28 51  1  0  0  0
 29 30  1  0  0  0
 30 31  1  0  0  0
 30 32  1  0  0  0
 30 52  1  0  0  0
 31 33  1  0  0  0
 31 34  1  0  0  0
 31 53  1  0  0  0
 32 35  1  0  0  0
 32 54  1  0  0  0
 32 55  1  0  0  0
 33 56  1  0  0  0
 33 57  1  0  0  0
 33 61  1  0  0  0
 34 35  1  0  0  0
 34 58  1  0  0  0
 34 59  1  0  0  0
 35 36  1  0  0  0
 35 60  1  0  0  0
 36 37  2  0  0  0
 36 38  1  0  0  0
M  CHG  3  26  -1  33   1  38  -1
M  END
> <i_epik_Tot_Q>
-1

> <i_epik_Tot_abs_Q>
3

> <i_lp_mmshare_version>
62121

> <i_m_Source_File_Index>
108

> <i_phase_Input_Structure_Number>
128

> <i_phase_Reference_Structure>
116

> <i_phase_Structure_Number>
128

> <Molecule Name>
178

> <Rotatable Bonds>
6

> <i_f3d_flags>
0

> <b_lp_Chiralities_Consistent>
1

> <r_canvas_IC50_human_P2Y14R,_nM>
269

> <r_canvas_pIC50>
6.57024771999759

> <r_epik_Charging_Adjusted_Penalty>
0.00139983320876408

> <r_epik_Ionization_Penalty>
  0.0014

> <r_epik_Ionization_Penalty_Charging>
  0.0014

> <r_epik_Ionization_Penalty_Neutral>
  0.0000

> <r_epik_State_Penalty>
  0.0000

> <r_lp_Energy>
66.742713

> <r_lp_tautomer_probability>
1

> <r_phase_Similarity_to_Reference>
0.777928264742441

> <s_canvas_CHEMBLID>
CHEMBL

> <s_canvas_Compound>
45

> <s_canvas_Paper>
Wen2022

> <s_epik_cmdline>
J2VwaWtfcHl0aG9uJywgJy1waCcsICc3LjAnLCAnLXRuJywgJzgnLCAnLW1hJywgJzUwMCcsICctaW1hZScsICc8aW5maWxlLm1hZT4nLCAnLW9tYWUnLCAnPG91dGZpbGUubWFlPic=

> <s_epik_input>
RkMoRikoRiljMVtjSF1bY0hdYyhbY0hdW2NIXTEpLWMoW2NIXTIpW2NIXVtjSF1jKGMyMyljKFtjSF1jKFtjSF0zKUMoPU8pW09IXSktYzRbY0hdW2NIXWMoW2NIXVtjSF00KVtDQEBIXTVbQ0BASF0oW05IMl0pW0NIMl1bQ0BIXShbQ0gyXTUpQyg9TylbT0hd

> <s_lp_Force_Field>
S-OPLS

> <s_lp_Variant>
178-1

> <s_m_Source_File>
database-aligned.sdf

> <s_m_Source_Path>
/data/matteo/P2Y14-antagonists-piperidineDerivatives-Wen2023/14052024-optimized-alignment

> <s_m_entry_id>
108

> <s_m_entry_name>
database-aligned.108

> <s_m_job_name>
align_ligands_1

> <s_phase_Alignment_Method>
snapped core

> <s_phase_Alignment_Reason>


> <s_phase_Core_SMARTS>
A1A[A]AA1a2aaa(aa2)-a(aaa3)a(a34)aaa(a4)-a5aaaaa5

$$$$
180
                    3D
 Schrodinger Suite 2023-2.
 68 73  0  0  1  0            999 V2000
   -5.0481   -0.5306    1.2767 F   0  0  0  0  0  0
   -4.4821    0.6211    0.9143 C   0  0  0  0  0  0
   -5.0116    1.0050   -0.2469 F   0  0  0  0  0  0
   -4.7632    1.5396    1.8383 F   0  0  0  0  0  0
   -2.9730    0.4939    0.7677 C   0  0  0  0  0  0
   -2.2150    1.6163    0.3778 C   0  0  0  0  0  0
   -2.3100   -0.7259    1.0182 C   0  0  0  0  0  0
   -0.8173    1.5194    0.2345 C   0  0  0  0  0  0
   -0.9123   -0.8180    0.8722 C   0  0  0  0  0  0
   -0.1435    0.3005    0.4764 C   0  0  0  0  0  0
    1.3213    0.1946    0.3158 C   0  0  0  0  0  0
    2.1781    1.2498    0.7017 C   0  0  0  0  0  0
    1.9049   -0.9675   -0.2340 C   0  0  0  0  0  0
    3.5772    1.1492    0.5492 C   0  0  0  0  0  0
    3.2987   -1.0778   -0.3903 C   0  0  0  0  0  0
    4.1553   -0.0249    0.0046 C   0  0  0  0  0  0
    4.3965    2.2263    0.9408 C   0  0  0  0  0  0
    5.5649   -0.1182   -0.1411 C   0  0  0  0  0  0
    5.7980    2.1529    0.7906 C   0  0  0  0  0  0
    6.2309   -1.3168   -0.6809 C   0  0  0  0  0  0
    6.3647    0.9783    0.2477 C   0  0  0  0  0  0
    6.6730    3.3062    1.2025 C   0  0  0  0  0  0
    6.8718   -1.2781   -1.9364 C   0  0  0  0  0  0
    6.2476   -2.5238    0.0492 C   0  0  0  0  0  0
    7.9116    3.2082    1.0540 O   0  0  0  0  0  0
    6.1375    4.3309    1.6813 O   0  5  0  0  0  0
    7.4975   -2.4247   -2.4629 C   0  0  0  0  0  0
    6.8718   -3.6722   -0.4733 C   0  0  0  0  0  0
    7.4957   -3.6386   -1.7386 C   0  0  0  0  0  0
    8.1568   -4.9122   -2.2670 C   0  0  2  0  0  0
    9.6931   -4.9673   -2.0528 C   0  0  1  0  0  0
    8.0278   -5.1851   -3.7971 C   0  0  0  0  0  0
   10.1008   -6.4281   -2.2522 C   0  0  0  0  0  0
   10.2318   -4.4106   -3.3724 C   0  0  0  0  0  0
    9.4979   -5.4589   -4.2093 C   0  0  1  0  0  0
    9.9527   -6.6853   -3.5551 N   0  0  0  0  0  0
   10.1130   -7.9411   -4.1426 C   0  0  0  0  0  0
   10.4600   -8.9671   -3.5549 O   0  0  0  0  0  0
    9.8263   -7.8741   -5.4609 O   0  0  0  0  0  0
    9.8605   -9.0304   -6.2872 C   0  0  0  0  0  0
    8.5171   -9.1695   -7.0088 C   0  0  0  0  0  0
   -2.7080    2.5576    0.1837 H   0  0  0  0  0  0
   -2.8650   -1.6008    1.3226 H   0  0  0  0  0  0
   -0.2631    2.3933   -0.0752 H   0  0  0  0  0  0
   -0.4301   -1.7632    1.0743 H   0  0  0  0  0  0
    1.7584    2.1497    1.1277 H   0  0  0  0  0  0
    1.2808   -1.7895   -0.5522 H   0  0  0  0  0  0
    3.6927   -1.9847   -0.8233 H   0  0  0  0  0  0
    3.9400    3.1143    1.3542 H   0  0  0  0  0  0
    7.4364    0.9026    0.1304 H   0  0  0  0  0  0
    6.8789   -0.3605   -2.5067 H   0  0  0  0  0  0
    5.7710   -2.5718    1.0175 H   0  0  0  0  0  0
    7.9725   -2.3519   -3.4284 H   0  0  0  0  0  0
    6.8664   -4.5842    0.1056 H   0  0  0  0  0  0
    7.6914   -5.7426   -1.7331 H   0  0  0  0  0  0
   10.0590   -4.5111   -1.1324 H   0  0  0  0  0  0
    7.3785   -6.0359   -4.0086 H   0  0  0  0  0  0
    7.6332   -4.3344   -4.3510 H   0  0  0  0  0  0
   11.1477   -6.5676   -1.9761 H   0  0  0  0  0  0
    9.5123   -7.1079   -1.6331 H   0  0  0  0  0  0
    9.9332   -3.3846   -3.5837 H   0  0  0  0  0  0
   11.3183   -4.4812   -3.4557 H   0  0  0  0  0  0
    9.6957   -5.3866   -5.2794 H   0  0  0  0  0  0
   10.6651   -8.9154   -7.0137 H   0  0  0  0  0  0
   10.0676   -9.9417   -5.7247 H   0  0  0  0  0  0
    8.5175  -10.0406   -7.6640 H   0  0  0  0  0  0
    8.3080   -8.2914   -7.6205 H   0  0  0  0  0  0
    7.6994   -9.2859   -6.2970 H   0  0  0  0  0  0
  1  2  1  0  0  0
  2  3  1  0  0  0
  2  4  1  0  0  0
  2  5  1  0  0  0
  5  6  2  0  0  0
  5  7  1  0  0  0
  6  8  1  0  0  0
  6 42  1  0  0  0
  7  9  2  0  0  0
  7 43  1  0  0  0
  8 10  2  0  0  0
  8 44  1  0  0  0
  9 10  1  0  0  0
  9 45  1  0  0  0
 10 11  1  0  0  0
 11 12  2  0  0  0
 11 13  1  0  0  0
 12 14  1  0  0  0
 12 46  1  0  0  0
 13 15  2  0  0  0
 13 47  1  0  0  0
 14 16  1  0  0  0
 14 17  2  0  0  0
 15 16  1  0  0  0
 15 48  1  0  0  0
 16 18  2  0  0  0
 17 19  1  0  0  0
 17 49  1  0  0  0
 18 20  1  0  0  0
 18 21  1  0  0  0
 19 22  1  0  0  0
 19 21  2  0  0  0
 20 23  2  0  0  0
 20 24  1  0  0  0
 21 50  1  0  0  0
 22 25  2  0  0  0
 22 26  1  0  0  0
 23 27  1  0  0  0
 23 51  1  0  0  0
 24 28  2  0  0  0
 24 52  1  0  0  0
 27 29  2  0  0  0
 27 53  1  0  0  0
 28 29  1  0  0  0
 28 54  1  0  0  0
 29 30  1  0  0  0
 30 31  1  0  0  0
 30 32  1  0  0  0
 30 55  1  0  0  0
 31 33  1  0  0  0
 31 34  1  0  0  0
 31 56  1  0  0  0
 32 35  1  0  0  0
 32 57  1  0  0  0
 32 58  1  0  0  0
 33 36  1  0  0  0
 33 59  1  0  0  0
 33 60  1  0  0  0
 34 35  1  0  0  0
 34 61  1  0  0  0
 34 62  1  0  0  0
 35 36  1  0  0  0
 35 63  1  0  0  0
 36 37  1  0  0  0
 37 38  2  0  0  0
 37 39  1  0  0  0
 39 40  1  0  0  0
 40 41  1  0  0  0
 40 64  1  0  0  0
 40 65  1  0  0  0
 41 66  1  0  0  0
 41 67  1  0  0  0
 41 68  1  0  0  0
M  CHG  1  26  -1
M  END
> <i_epik_Tot_Q>
-1

> <i_epik_Tot_abs_Q>
1

> <i_lp_mmshare_version>
62121

> <i_m_Source_File_Index>
109

> <i_phase_Input_Structure_Number>
129

> <i_phase_Reference_Structure>
110

> <i_phase_Structure_Number>
129

> <Molecule Name>
180

> <Rotatable Bonds>
7

> <i_f3d_flags>
0

> <b_lp_Chiralities_Consistent>
1

> <r_canvas_IC50_human_P2Y14R,_nM>
442

> <r_canvas_pIC50>
6.35457773065091

> <r_epik_Charging_Adjusted_Penalty>
0.00143519162298062

> <r_epik_Ionization_Penalty>
  0.0007

> <r_epik_Ionization_Penalty_Charging>
  0.0007

> <r_epik_Ionization_Penalty_Neutral>
  0.0000

> <r_epik_State_Penalty>
  0.0007

> <r_lp_Energy>
81.674253

> <r_phase_Similarity_to_Reference>
0.906738768748602

> <s_canvas_CHEMBLID>
CHEMBL

> <s_canvas_Compound>
142

> <s_canvas_Paper>
Wen2022

> <s_epik_Chemistry_Notes>
This compound has an ester and may undergo hydrolysis at high or low pH.

> <s_epik_cmdline>
J2VwaWtfcHl0aG9uJywgJy1waCcsICc3LjAnLCAnLXRuJywgJzgnLCAnLW1hJywgJzUwMCcsICctaW1hZScsICc8aW5maWxlLm1hZT4nLCAnLW9tYWUnLCAnPG91dGZpbGUubWFlPic=

> <s_epik_input>
RkMoRikoRiljMVtjSF1bY0hdYyhbY0hdW2NIXTEpLWMoW2NIXTIpW2NIXVtjSF1jKGMyMyljKFtjSF1jKFtjSF0zKUMoPU8pW09IXSktYzRbY0hdW2NIXWMoW2NIXVtjSF00KVtDQEhdKFtDQEBIXTU2KVtDSDJdW0NAQEhdKFtDSDJdNilOKFtDSDJdNSlDKD1PKU9bQ0gyXVtDSDNd

> <s_lp_Force_Field>
S-OPLS

> <s_lp_Variant>
180-1

> <s_m_Source_File>
database-aligned.sdf

> <s_m_Source_Path>
/data/matteo/P2Y14-antagonists-piperidineDerivatives-Wen2023/14052024-optimized-alignment

> <s_m_entry_id>
109

> <s_m_entry_name>
database-aligned.109

> <s_m_job_name>
align_ligands_1

> <s_phase_Alignment_Method>
snapped core

> <s_phase_Alignment_Reason>


> <s_phase_Core_SMARTS>
A12[A]AA(A1)A(A2)a3aaa(aa3)-a(aaa4)a(a45)aaa(a5)-a6aaaaa6

$$$$
184
                    3D
 Schrodinger Suite 2023-2.
 53 57  0  0  1  0            999 V2000
   -5.0261    1.4324    0.2838 F   0  0  0  0  0  0
   -4.4843    0.5364    1.1094 C   0  0  0  0  0  0
   -4.7261    0.9091    2.3654 F   0  0  0  0  0  0
   -5.0718   -0.6406    0.8904 F   0  0  0  0  0  0
   -2.9805    0.4435    0.8954 C   0  0  0  0  0  0
   -2.2992   -0.7723    1.1122 C   0  0  0  0  0  0
   -2.2454    1.5776    0.4941 C   0  0  0  0  0  0
   -0.9062   -0.8510    0.9207 C   0  0  0  0  0  0
   -0.8521    1.4946    0.3065 C   0  0  0  0  0  0
   -0.1610    0.2796    0.5158 C   0  0  0  0  0  0
    1.3001    0.1930    0.3226 C   0  0  0  0  0  0
    2.1524    1.2383    0.7416 C   0  0  0  0  0  0
    1.8847   -0.9390   -0.2850 C   0  0  0  0  0  0
    3.5501    1.1548    0.5712 C   0  0  0  0  0  0
    3.2777   -1.0307   -0.4622 C   0  0  0  0  0  0
    4.1320    0.0089   -0.0274 C   0  0  0  0  0  0
    4.3632    2.2211    1.0016 C   0  0  0  0  0  0
    5.5422   -0.0679   -0.1843 C   0  0  0  0  0  0
    5.7637    2.1649    0.8405 C   0  0  0  0  0  0
    6.2189   -1.2368   -0.7759 C   0  0  0  0  0  0
    6.3353    1.0178    0.2468 C   0  0  0  0  0  0
    6.6335    3.3065    1.2938 C   0  0  0  0  0  0
    6.9102   -1.1235   -1.9992 C   0  0  0  0  0  0
    6.1956   -2.4906   -0.1313 C   0  0  0  0  0  0
    7.8718    3.2234    1.1339 O   0  0  0  0  0  0
    6.0939    4.3069    1.8173 O   0  5  0  0  0  0
    7.5479   -2.2386   -2.5763 C   0  0  0  0  0  0
    6.8300   -3.6077   -0.7058 C   0  0  0  0  0  0
    7.5223   -3.4998   -1.9335 C   0  0  0  0  0  0
    8.1668   -4.7603   -2.5405 C   0  0  0  0  0  0
    9.1681   -5.4314   -1.5741 C   0  0  0  0  0  0
    9.1677   -4.5137   -3.6951 C   0  0  0  0  0  0
   10.0500   -4.3387   -2.3607 N   0  3  0  0  0  0
   -2.8411   -1.6517    1.4277 H   0  0  0  0  0  0
   -2.7464    2.5198    0.3280 H   0  0  0  0  0  0
   -0.4079   -1.7928    1.0983 H   0  0  0  0  0  0
   -0.3136    2.3771   -0.0069 H   0  0  0  0  0  0
    1.7301    2.1153    1.2107 H   0  0  0  0  0  0
    1.2614   -1.7513   -0.6288 H   0  0  0  0  0  0
    3.6720   -1.9145   -0.9399 H   0  0  0  0  0  0
    3.9024    3.0870    1.4554 H   0  0  0  0  0  0
    7.4069    0.9555    0.1220 H   0  0  0  0  0  0
    6.9419   -0.1715   -2.5095 H   0  0  0  0  0  0
    5.6743   -2.6008    0.8087 H   0  0  0  0  0  0
    8.0372   -2.0807   -3.5219 H   0  0  0  0  0  0
    6.7749   -4.5590   -0.1971 H   0  0  0  0  0  0
    7.3738   -5.4472   -2.8394 H   0  0  0  0  0  0
    9.0443   -5.2531   -0.5058 H   0  0  0  0  0  0
    9.4396   -6.4552   -1.8345 H   0  0  0  0  0  0
    9.4392   -5.4161   -4.2445 H   0  0  0  0  0  0
    9.0637   -3.6428   -4.3365 H   0  0  0  0  0  0
    9.9299   -3.4182   -1.9621 H   0  0  0  0  0  0
   11.0193   -4.5992   -2.4735 H   0  0  0  0  0  0
  1  2  1  0  0  0
  2  3  1  0  0  0
  2  4  1  0  0  0
  2  5  1  0  0  0
  5  6  2  0  0  0
  5  7  1  0  0  0
  6  8  1  0  0  0
  6 34  1  0  0  0
  7  9  2  0  0  0
  7 35  1  0  0  0
  8 10  2  0  0  0
  8 36  1  0  0  0
  9 10  1  0  0  0
  9 37  1  0  0  0
 10 11  1  0  0  0
 11 12  2  0  0  0
 11 13  1  0  0  0
 12 14  1  0  0  0
 12 38  1  0  0  0
 13 15  2  0  0  0
 13 39  1  0  0  0
 14 16  1  0  0  0
 14 17  2  0  0  0
 15 16  1  0  0  0
 15 40  1  0  0  0
 16 18  2  0  0  0
 17 19  1  0  0  0
 17 41  1  0  0  0
 18 20  1  0  0  0
 18 21  1  0  0  0
 19 22  1  0  0  0
 19 21  2  0  0  0
 20 23  2  0  0  0
 20 24  1  0  0  0
 21 42  1  0  0  0
 22 25  2  0  0  0
 22 26  1  0  0  0
 23 27  1  0  0  0
 23 43  1  0  0  0
 24 28  2  0  0  0
 24 44  1  0  0  0
 27 29  2  0  0  0
 27 45  1  0  0  0
 28 29  1  0  0  0
 28 46  1  0  0  0
 29 30  1  0  0  0
 30 31  1  0  0  0
 30 32  1  0  0  0
 30 47  1  0  0  0
 31 33  1  0  0  0
 31 48  1  0  0  0
 31 49  1  0  0  0
 32 33  1  0  0  0
 32 50  1  0  0  0
 32 51  1  0  0  0
 33 52  1  0  0  0
 33 53  1  0  0  0
M  CHG  2  26  -1  33   1
M  END
> <i_epik_Tot_Q>
0

> <i_epik_Tot_abs_Q>
2

> <i_lp_mmshare_version>
62121

> <i_m_Source_File_Index>
110

> <i_phase_Input_Structure_Number>
130

> <i_phase_Reference_Structure>
134

> <i_phase_Structure_Number>
130

> <Molecule Name>
184

> <Rotatable Bonds>
5

> <i_f3d_flags>
0

> <b_lp_Chiralities_Consistent>
1

> <r_canvas_IC50_human_P2Y14R,_nM>
65.9

> <r_canvas_pIC50>
7.18111458540599

> <r_epik_Charging_Adjusted_Penalty>
0.00112832671001641

> <r_epik_Ionization_Penalty>
  0.0011

> <r_epik_Ionization_Penalty_Charging>
  0.0011

> <r_epik_Ionization_Penalty_Neutral>
  0.0000

> <r_epik_State_Penalty>
  0.0000

> <r_lp_Energy>
73.328318

> <r_lp_tautomer_probability>
1

> <r_phase_Similarity_to_Reference>
0.86321225362461

> <s_canvas_CHEMBLID>
CHEMBL

> <s_canvas_Compound>
5

> <s_canvas_Paper>
Wen2023

> <s_epik_cmdline>
J2VwaWtfcHl0aG9uJywgJy1waCcsICc3LjAnLCAnLXRuJywgJzgnLCAnLW1hJywgJzUwMCcsICctaW1hZScsICc8aW5maWxlLm1hZT4nLCAnLW9tYWUnLCAnPG91dGZpbGUubWFlPic=

> <s_epik_input>
RkMoRikoRiljMVtjSF1bY0hdYyhbY0hdW2NIXTEpLWMoW2NIXTIpW2NIXVtjSF1jKGMyMyljKFtjSF1jKFtjSF0zKUMoPU8pW09IXSktYzRbY0hdW2NIXWMoW2NIXVtjSF00KVtDSF01W0NIMl1bTkhdW0NIMl01

> <s_lp_Force_Field>
S-OPLS

> <s_lp_Variant>
184-1

> <s_m_Source_File>
database-aligned.sdf

> <s_m_Source_Path>
/data/matteo/P2Y14-antagonists-piperidineDerivatives-Wen2023/14052024-optimized-alignment

> <s_m_entry_id>
110

> <s_m_entry_name>
database-aligned.110

> <s_m_job_name>
align_ligands_1

> <s_phase_Alignment_Method>
snapped core

> <s_phase_Alignment_Reason>


> <s_phase_Core_SMARTS>
A1[A]AA1a2aaa(aa2)-a(aaa3)a(a34)aaa(a4)-a5aaaaa5

$$$$
185
                    3D
 Schrodinger Suite 2023-2.
 60 65  0  0  1  0            999 V2000
   -5.0261    1.4324    0.2838 F   0  0  0  0  0  0
   -4.4843    0.5364    1.1094 C   0  0  0  0  0  0
   -4.7261    0.9091    2.3654 F   0  0  0  0  0  0
   -5.0718   -0.6406    0.8904 F   0  0  0  0  0  0
   -2.9805    0.4435    0.8954 C   0  0  0  0  0  0
   -2.2992   -0.7723    1.1122 C   0  0  0  0  0  0
   -2.2454    1.5776    0.4941 C   0  0  0  0  0  0
   -0.9062   -0.8510    0.9207 C   0  0  0  0  0  0
   -0.8521    1.4946    0.3065 C   0  0  0  0  0  0
   -0.1610    0.2796    0.5158 C   0  0  0  0  0  0
    1.3001    0.1930    0.3226 C   0  0  0  0  0  0
    2.1524    1.2383    0.7416 C   0  0  0  0  0  0
    1.8847   -0.9390   -0.2850 C   0  0  0  0  0  0
    3.5501    1.1548    0.5712 C   0  0  0  0  0  0
    3.2777   -1.0307   -0.4622 C   0  0  0  0  0  0
    4.1320    0.0089   -0.0274 C   0  0  0  0  0  0
    4.3632    2.2211    1.0016 C   0  0  0  0  0  0
    5.5422   -0.0679   -0.1843 C   0  0  0  0  0  0
    5.7637    2.1649    0.8405 C   0  0  0  0  0  0
    6.2189   -1.2368   -0.7759 C   0  0  0  0  0  0
    6.3353    1.0178    0.2468 C   0  0  0  0  0  0
    6.6335    3.3065    1.2938 C   0  0  0  0  0  0
    6.9102   -1.1235   -1.9992 C   0  0  0  0  0  0
    6.1956   -2.4906   -0.1313 C   0  0  0  0  0  0
    7.8718    3.2234    1.1339 O   0  0  0  0  0  0
    6.0939    4.3069    1.8173 O   0  5  0  0  0  0
    7.5479   -2.2386   -2.5763 C   0  0  0  0  0  0
    6.8300   -3.6077   -0.7058 C   0  0  0  0  0  0
    7.5223   -3.4998   -1.9335 C   0  0  0  0  0  0
    8.1668   -4.7603   -2.5405 C   0  0  0  0  0  0
    9.1681   -5.4314   -1.5741 C   0  0  0  0  0  0
    9.1677   -4.5137   -3.6951 C   0  0  0  0  0  0
   10.0500   -4.3387   -2.3607 C   0  0  0  0  0  0
   10.4623   -2.9896   -1.7400 C   0  0  0  0  0  0
   11.5601   -4.5695   -2.4519 C   0  0  0  0  0  0
   11.7201   -3.6152   -1.3652 N   0  3  0  0  0  0
   -2.8411   -1.6517    1.4277 H   0  0  0  0  0  0
   -2.7463    2.5198    0.3280 H   0  0  0  0  0  0
   -0.4079   -1.7928    1.0983 H   0  0  0  0  0  0
   -0.3136    2.3771   -0.0069 H   0  0  0  0  0  0
    1.7301    2.1154    1.2107 H   0  0  0  0  0  0
    1.2615   -1.7514   -0.6288 H   0  0  0  0  0  0
    3.6720   -1.9145   -0.9399 H   0  0  0  0  0  0
    3.9025    3.0871    1.4554 H   0  0  0  0  0  0
    7.4068    0.9551    0.1217 H   0  0  0  0  0  0
    6.9423   -0.1717   -2.5096 H   0  0  0  0  0  0
    5.6743   -2.6010    0.8086 H   0  0  0  0  0  0
    8.0380   -2.0810   -3.5215 H   0  0  0  0  0  0
    6.7754   -4.5593   -0.1977 H   0  0  0  0  0  0
    7.3750   -5.4481   -2.8398 H   0  0  0  0  0  0
    9.0283   -5.2628   -0.5063 H   0  0  0  0  0  0
    9.4168   -6.4613   -1.8332 H   0  0  0  0  0  0
    9.4184   -5.4186   -4.2503 H   0  0  0  0  0  0
    9.0508   -3.6484   -4.3417 H   0  0  0  0  0  0
   10.6011   -2.1924   -2.4730 H   0  0  0  0  0  0
    9.8847   -2.6604   -0.8759 H   0  0  0  0  0  0
   11.8909   -5.5787   -2.2053 H   0  0  0  0  0  0
   12.0006   -4.2103   -3.3842 H   0  0  0  0  0  0
   12.5242   -3.0112   -1.4589 H   0  0  0  0  0  0
   11.6526   -4.0652   -0.4636 H   0  0  0  0  0  0
  1  2  1  0  0  0
  2  3  1  0  0  0
  2  4  1  0  0  0
  2  5  1  0  0  0
  5  6  2  0  0  0
  5  7  1  0  0  0
  6  8  1  0  0  0
  6 37  1  0  0  0
  7  9  2  0  0  0
  7 38  1  0  0  0
  8 10  2  0  0  0
  8 39  1  0  0  0
  9 10  1  0  0  0
  9 40  1  0  0  0
 10 11  1  0  0  0
 11 12  2  0  0  0
 11 13  1  0  0  0
 12 14  1  0  0  0
 12 41  1  0  0  0
 13 15  2  0  0  0
 13 42  1  0  0  0
 14 16  1  0  0  0
 14 17  2  0  0  0
 15 16  1  0  0  0
 15 43  1  0  0  0
 16 18  2  0  0  0
 17 19  1  0  0  0
 17 44  1  0  0  0
 18 20  1  0  0  0
 18 21  1  0  0  0
 19 22  1  0  0  0
 19 21  2  0  0  0
 20 23  2  0  0  0
 20 24  1  0  0  0
 21 45  1  0  0  0
 22 25  2  0  0  0
 22 26  1  0  0  0
 23 27  1  0  0  0
 23 46  1  0  0  0
 24 28  2  0  0  0
 24 47  1  0  0  0
 27 29  2  0  0  0
 27 48  1  0  0  0
 28 29  1  0  0  0
 28 49  1  0  0  0
 29 30  1  0  0  0
 30 31  1  0  0  0
 30 32  1  0  0  0
 30 50  1  0  0  0
 31 33  1  0  0  0
 31 51  1  0  0  0
 31 52  1  0  0  0
 32 33  1  0  0  0
 32 53  1  0  0  0
 32 54  1  0  0  0
 33 34  1  0  0  0
 33 35  1  0  0  0
 34 36  1  0  0  0
 34 55  1  0  0  0
 34 56  1  0  0  0
 35 36  1  0  0  0
 35 57  1  0  0  0
 35 58  1  0  0  0
 36 59  1  0  0  0
 36 60  1  0  0  0
M  CHG  2  26  -1  36   1
M  END
> <i_epik_Tot_Q>
0

> <i_epik_Tot_abs_Q>
2

> <i_lp_mmshare_version>
62121

> <i_m_Source_File_Index>
111

> <i_phase_Input_Structure_Number>
131

> <i_phase_Reference_Structure>
134

> <i_phase_Structure_Number>
131

> <Molecule Name>
185

> <Rotatable Bonds>
5

> <i_f3d_flags>
0

> <b_lp_Chiralities_Consistent>
1

> <r_canvas_IC50_human_P2Y14R,_nM>
46.6

> <r_canvas_pIC50>
7.33161408331

> <r_epik_Charging_Adjusted_Penalty>
0.00149772112935754

> <r_epik_Ionization_Penalty>
  0.0008

> <r_epik_Ionization_Penalty_Charging>
  0.0008

> <r_epik_Ionization_Penalty_Neutral>
  0.0000

> <r_epik_State_Penalty>
  0.0007

> <r_lp_Energy>
73.005835

> <r_phase_Similarity_to_Reference>
0.963602789908281

> <s_canvas_CHEMBLID>
CHEMBL

> <s_canvas_Compound>
6

> <s_canvas_Paper>
Wen2023

> <s_epik_cmdline>
J2VwaWtfcHl0aG9uJywgJy1waCcsICc3LjAnLCAnLXRuJywgJzgnLCAnLW1hJywgJzUwMCcsICctaW1hZScsICc8aW5maWxlLm1hZT4nLCAnLW9tYWUnLCAnPG91dGZpbGUubWFlPic=

> <s_epik_input>
RkMoRikoRiljMVtjSF1bY0hdYyhbY0hdW2NIXTEpLWMoW2NIXTIpW2NIXVtjSF1jKGMyMyljKFtjSF1jKFtjSF0zKUMoPU8pW09IXSktYzRbY0hdW2NIXWMoW2NIXVtjSF00KVtDSF0oW0NIMl01KVtDSDJdQzU2W0NIMl1bTkhdW0NIMl02

> <s_lp_Force_Field>
S-OPLS

> <s_lp_Variant>
185-1

> <s_m_Source_File>
database-aligned.sdf

> <s_m_Source_Path>
/data/matteo/P2Y14-antagonists-piperidineDerivatives-Wen2023/14052024-optimized-alignment

> <s_m_entry_id>
111

> <s_m_entry_name>
database-aligned.111

> <s_m_job_name>
align_ligands_1

> <s_phase_Alignment_Method>
snapped core

> <s_phase_Alignment_Reason>


> <s_phase_Core_SMARTS>
A1[A]AA12AA(A2)a3aaa(aa3)-a(aaa4)a(a45)aaa(a5)-a6aaaaa6

$$$$
186
                    3D
 Schrodinger Suite 2023-2.
 58 63  0  0  1  0            999 V2000
   -5.0261    1.4324    0.2838 F   0  0  0  0  0  0
   -4.4843    0.5364    1.1094 C   0  0  0  0  0  0
   -4.7261    0.9091    2.3654 F   0  0  0  0  0  0
   -5.0718   -0.6406    0.8904 F   0  0  0  0  0  0
   -2.9805    0.4435    0.8954 C   0  0  0  0  0  0
   -2.2992   -0.7723    1.1122 C   0  0  0  0  0  0
   -2.2454    1.5776    0.4941 C   0  0  0  0  0  0
   -0.9062   -0.8510    0.9207 C   0  0  0  0  0  0
   -0.8521    1.4946    0.3065 C   0  0  0  0  0  0
   -0.1610    0.2796    0.5158 C   0  0  0  0  0  0
    1.3001    0.1930    0.3226 C   0  0  0  0  0  0
    2.1524    1.2383    0.7416 C   0  0  0  0  0  0
    1.8847   -0.9390   -0.2850 C   0  0  0  0  0  0
    3.5501    1.1548    0.5712 C   0  0  0  0  0  0
    3.2777   -1.0307   -0.4622 C   0  0  0  0  0  0
    4.1320    0.0089   -0.0274 C   0  0  0  0  0  0
    4.3632    2.2211    1.0016 C   0  0  0  0  0  0
    5.5422   -0.0679   -0.1843 C   0  0  0  0  0  0
    5.7637    2.1649    0.8405 C   0  0  0  0  0  0
    6.2189   -1.2368   -0.7759 C   0  0  0  0  0  0
    6.3353    1.0178    0.2468 C   0  0  0  0  0  0
    6.6335    3.3065    1.2938 C   0  0  0  0  0  0
    6.9102   -1.1235   -1.9992 C   0  0  0  0  0  0
    6.1956   -2.4906   -0.1313 C   0  0  0  0  0  0
    7.8718    3.2234    1.1339 O   0  0  0  0  0  0
    6.0939    4.3069    1.8173 O   0  5  0  0  0  0
    7.5479   -2.2386   -2.5763 C   0  0  0  0  0  0
    6.8300   -3.6077   -0.7058 C   0  0  0  0  0  0
    7.5223   -3.4998   -1.9335 C   0  0  0  0  0  0
    8.2051   -4.6546   -2.5281 C   0  0  0  0  0  0
    8.3209   -5.9303   -2.1389 C   0  0  0  0  0  0
    9.0567   -4.7952   -3.7749 C   0  0  0  0  0  0
    9.1967   -6.2693   -3.3357 C   0  0  0  0  0  0
   10.5168   -6.9736   -3.0728 C   0  0  0  0  0  0
    8.8123   -7.4689   -4.1846 C   0  0  0  0  0  0
   10.2477   -7.7347   -4.2937 N   0  3  0  0  0  0
   -2.8406   -1.6509    1.4306 H   0  0  0  0  0  0
   -2.7463    2.5203    0.3302 H   0  0  0  0  0  0
   -0.4078   -1.7926    1.0989 H   0  0  0  0  0  0
   -0.3135    2.3772   -0.0066 H   0  0  0  0  0  0
    1.7301    2.1151    1.2110 H   0  0  0  0  0  0
    1.2615   -1.7512   -0.6292 H   0  0  0  0  0  0
    3.6723   -1.9142   -0.9404 H   0  0  0  0  0  0
    3.9026    3.0874    1.4548 H   0  0  0  0  0  0
    7.4070    0.9555    0.1214 H   0  0  0  0  0  0
    6.9461   -0.1710   -2.5079 H   0  0  0  0  0  0
    5.6783   -2.6001    0.8109 H   0  0  0  0  0  0
    8.0674   -2.1200   -3.5158 H   0  0  0  0  0  0
    6.7905   -4.5545   -0.1876 H   0  0  0  0  0  0
    7.9528   -6.5092   -1.2968 H   0  0  0  0  0  0
    8.5516   -4.6758   -4.7339 H   0  0  0  0  0  0
   10.0069   -4.2602   -3.7854 H   0  0  0  0  0  0
   11.4028   -6.3419   -3.1400 H   0  0  0  0  0  0
   10.5148   -7.6010   -2.1795 H   0  0  0  0  0  0
    8.2823   -8.2490   -3.6349 H   0  0  0  0  0  0
    8.3394   -7.2319   -5.1379 H   0  0  0  0  0  0
   10.6436   -7.2774   -5.1026 H   0  0  0  0  0  0
   10.4897   -8.7131   -4.2275 H   0  0  0  0  0  0
  1  2  1  0  0  0
  2  3  1  0  0  0
  2  4  1  0  0  0
  2  5  1  0  0  0
  5  6  2  0  0  0
  5  7  1  0  0  0
  6  8  1  0  0  0
  6 37  1  0  0  0
  7  9  2  0  0  0
  7 38  1  0  0  0
  8 10  2  0  0  0
  8 39  1  0  0  0
  9 10  1  0  0  0
  9 40  1  0  0  0
 10 11  1  0  0  0
 11 12  2  0  0  0
 11 13  1  0  0  0
 12 14  1  0  0  0
 12 41  1  0  0  0
 13 15  2  0  0  0
 13 42  1  0  0  0
 14 16  1  0  0  0
 14 17  2  0  0  0
 15 16  1  0  0  0
 15 43  1  0  0  0
 16 18  2  0  0  0
 17 19  1  0  0  0
 17 44  1  0  0  0
 18 20  1  0  0  0
 18 21  1  0  0  0
 19 22  1  0  0  0
 19 21  2  0  0  0
 20 23  2  0  0  0
 20 24  1  0  0  0
 21 45  1  0  0  0
 22 25  2  0  0  0
 22 26  1  0  0  0
 23 27  1  0  0  0
 23 46  1  0  0  0
 24 28  2  0  0  0
 24 47  1  0  0  0
 27 29  2  0  0  0
 27 48  1  0  0  0
 28 29  1  0  0  0
 28 49  1  0  0  0
 29 30  1  0  0  0
 30 31  2  0  0  0
 30 32  1  0  0  0
 31 33  1  0  0  0
 31 50  1  0  0  0
 32 33  1  0  0  0
 32 51  1  0  0  0
 32 52  1  0  0  0
 33 34  1  0  0  0
 33 35  1  0  0  0
 34 36  1  0  0  0
 34 53  1  0  0  0
 34 54  1  0  0  0
 35 36  1  0  0  0
 35 55  1  0  0  0
 35 56  1  0  0  0
 36 57  1  0  0  0
 36 58  1  0  0  0
M  CHG  2  26  -1  36   1
M  END
> <i_epik_Tot_Q>
0

> <i_epik_Tot_abs_Q>
2

> <i_lp_mmshare_version>
62121

> <i_m_Source_File_Index>
112

> <i_phase_Input_Structure_Number>
132

> <i_phase_Reference_Structure>
116

> <i_phase_Structure_Number>
132

> <Molecule Name>
186

> <Rotatable Bonds>
5

> <i_f3d_flags>
0

> <b_lp_Chiralities_Consistent>
1

> <r_canvas_IC50_human_P2Y14R,_nM>
9.69

> <r_canvas_pIC50>
8.01367622294923

> <r_epik_Charging_Adjusted_Penalty>
0.00108064589925566

> <r_epik_Ionization_Penalty>
  0.0011

> <r_epik_Ionization_Penalty_Charging>
  0.0011

> <r_epik_Ionization_Penalty_Neutral>
  0.0000

> <r_epik_State_Penalty>
  0.0000

> <r_lp_Energy>
74.570723

> <r_lp_tautomer_probability>
1

> <r_phase_Similarity_to_Reference>
0.750346005505954

> <s_canvas_CHEMBLID>
CHEMBL

> <s_canvas_Compound>
7

> <s_canvas_Paper>
Wen2023

> <s_epik_cmdline>
J2VwaWtfcHl0aG9uJywgJy1waCcsICc3LjAnLCAnLXRuJywgJzgnLCAnLW1hJywgJzUwMCcsICctaW1hZScsICc8aW5maWxlLm1hZT4nLCAnLW9tYWUnLCAnPG91dGZpbGUubWFlPic=

> <s_epik_input>
RkMoRikoRiljMVtjSF1bY0hdYyhbY0hdW2NIXTEpLWMoW2NIXTIpW2NIXVtjSF1jKGMyMyljKFtjSF1jKFtjSF0zKUMoPU8pW09IXSktYzRbY0hdW2NIXWMoW2NIXVtjSF00KUMoW0NIMl01KT1bQ0hdQzU2W0NIMl1bTkhdW0NIMl02

> <s_lp_Force_Field>
S-OPLS

> <s_lp_Variant>
186-1

> <s_m_Source_File>
database-aligned.sdf

> <s_m_Source_Path>
/data/matteo/P2Y14-antagonists-piperidineDerivatives-Wen2023/14052024-optimized-alignment

> <s_m_entry_id>
112

> <s_m_entry_name>
database-aligned.112

> <s_m_job_name>
align_ligands_1

> <s_phase_Alignment_Method>
snapped core

> <s_phase_Alignment_Reason>


> <s_phase_Core_SMARTS>
a1aaaaa1-a(a2)aaa(a23)a(aaa3)-a4aaaaa4

$$$$
187
                    3D
 Schrodinger Suite 2023-2.
 61 66  0  0  1  0            999 V2000
   -5.0261    1.4324    0.2838 F   0  0  0  0  0  0
   -4.4843    0.5364    1.1094 C   0  0  0  0  0  0
   -4.7261    0.9091    2.3654 F   0  0  0  0  0  0
   -5.0718   -0.6406    0.8904 F   0  0  0  0  0  0
   -2.9805    0.4435    0.8954 C   0  0  0  0  0  0
   -2.2454    1.5776    0.4941 C   0  0  0  0  0  0
   -2.2992   -0.7723    1.1122 C   0  0  0  0  0  0
   -0.8521    1.4946    0.3065 C   0  0  0  0  0  0
   -0.9062   -0.8510    0.9207 C   0  0  0  0  0  0
   -0.1610    0.2796    0.5158 C   0  0  0  0  0  0
    1.3001    0.1930    0.3226 C   0  0  0  0  0  0
    2.1524    1.2383    0.7416 C   0  0  0  0  0  0
    1.8847   -0.9390   -0.2850 C   0  0  0  0  0  0
    3.5501    1.1548    0.5712 C   0  0  0  0  0  0
    3.2777   -1.0307   -0.4622 C   0  0  0  0  0  0
    4.1320    0.0089   -0.0274 C   0  0  0  0  0  0
    4.3632    2.2211    1.0016 C   0  0  0  0  0  0
    5.5422   -0.0679   -0.1843 C   0  0  0  0  0  0
    5.7637    2.1649    0.8405 C   0  0  0  0  0  0
    6.2189   -1.2368   -0.7759 C   0  0  0  0  0  0
    6.3353    1.0178    0.2468 C   0  0  0  0  0  0
    6.6335    3.3065    1.2938 C   0  0  0  0  0  0
    6.9102   -1.1235   -1.9992 C   0  0  0  0  0  0
    6.1956   -2.4906   -0.1313 C   0  0  0  0  0  0
    7.8718    3.2234    1.1339 O   0  0  0  0  0  0
    6.0939    4.3069    1.8173 O   0  5  0  0  0  0
    7.5479   -2.2386   -2.5763 C   0  0  0  0  0  0
    6.8300   -3.6077   -0.7058 C   0  0  0  0  0  0
    7.5223   -3.4998   -1.9335 C   0  0  0  0  0  0
    8.1668   -4.7603   -2.5405 C   0  0  0  0  0  0
    7.1322   -5.6462   -2.9349 O   0  0  0  0  0  0
    9.1677   -4.5137   -3.6951 C   0  0  0  0  0  0
    9.1681   -5.4314   -1.5741 C   0  0  0  0  0  0
   10.0500   -4.3387   -2.3607 C   0  0  0  0  0  0
   10.4623   -2.9896   -1.7400 C   0  0  0  0  0  0
   11.5601   -4.5695   -2.4519 C   0  0  0  0  0  0
   11.7201   -3.6152   -1.3652 N   0  3  0  0  0  0
   -2.7525    2.5163    0.3257 H   0  0  0  0  0  0
   -2.8367   -1.6553    1.4244 H   0  0  0  0  0  0
   -0.3138    2.3769   -0.0080 H   0  0  0  0  0  0
   -0.4080   -1.7929    1.0979 H   0  0  0  0  0  0
    1.7300    2.1152    1.2108 H   0  0  0  0  0  0
    1.2615   -1.7512   -0.6292 H   0  0  0  0  0  0
    3.6720   -1.9143   -0.9403 H   0  0  0  0  0  0
    3.9031    3.0874    1.4555 H   0  0  0  0  0  0
    7.4068    0.9551    0.1216 H   0  0  0  0  0  0
    6.9409   -0.1721   -2.5106 H   0  0  0  0  0  0
    5.6739   -2.6013    0.8084 H   0  0  0  0  0  0
    8.0357   -2.0814   -3.5227 H   0  0  0  0  0  0
    6.7754   -4.5592   -0.1973 H   0  0  0  0  0  0
    6.6030   -5.8461   -2.1777 H   0  0  0  0  0  0
    9.4208   -5.4154   -4.2549 H   0  0  0  0  0  0
    9.0563   -3.6445   -4.3374 H   0  0  0  0  0  0
    9.0317   -5.2574   -0.5067 H   0  0  0  0  0  0
    9.4182   -6.4626   -1.8278 H   0  0  0  0  0  0
   10.6006   -2.1926   -2.4734 H   0  0  0  0  0  0
    9.8843   -2.6599   -0.8762 H   0  0  0  0  0  0
   11.8906   -5.5790   -2.2059 H   0  0  0  0  0  0
   12.0003   -4.2107   -3.3846 H   0  0  0  0  0  0
   12.5245   -3.0114   -1.4584 H   0  0  0  0  0  0
   11.6528   -4.0653   -0.4635 H   0  0  0  0  0  0
  1  2  1  0  0  0
  2  3  1  0  0  0
  2  4  1  0  0  0
  2  5  1  0  0  0
  5  6  2  0  0  0
  5  7  1  0  0  0
  6  8  1  0  0  0
  6 38  1  0  0  0
  7  9  2  0  0  0
  7 39  1  0  0  0
  8 10  2  0  0  0
  8 40  1  0  0  0
  9 10  1  0  0  0
  9 41  1  0  0  0
 10 11  1  0  0  0
 11 12  2  0  0  0
 11 13  1  0  0  0
 12 14  1  0  0  0
 12 42  1  0  0  0
 13 15  2  0  0  0
 13 43  1  0  0  0
 14 16  1  0  0  0
 14 17  2  0  0  0
 15 16  1  0  0  0
 15 44  1  0  0  0
 16 18  2  0  0  0
 17 19  1  0  0  0
 17 45  1  0  0  0
 18 20  1  0  0  0
 18 21  1  0  0  0
 19 22  1  0  0  0
 19 21  2  0  0  0
 20 23  2  0  0  0
 20 24  1  0  0  0
 21 46  1  0  0  0
 22 25  2  0  0  0
 22 26  1  0  0  0
 23 27  1  0  0  0
 23 47  1  0  0  0
 24 28  2  0  0  0
 24 48  1  0  0  0
 27 29  2  0  0  0
 27 49  1  0  0  0
 28 29  1  0  0  0
 28 50  1  0  0  0
 29 30  1  0  0  0
 30 31  1  0  0  0
 30 32  1  0  0  0
 30 33  1  0  0  0
 31 51  1  0  0  0
 32 34  1  0  0  0
 32 52  1  0  0  0
 32 53  1  0  0  0
 33 34  1  0  0  0
 33 54  1  0  0  0
 33 55  1  0  0  0
 34 35  1  0  0  0
 34 36  1  0  0  0
 35 37  1  0  0  0
 35 56  1  0  0  0
 35 57  1  0  0  0
 36 37  1  0  0  0
 36 58  1  0  0  0
 36 59  1  0  0  0
 37 60  1  0  0  0
 37 61  1  0  0  0
M  CHG  2  26  -1  37   1
M  END
> <i_epik_Tot_Q>
0

> <i_epik_Tot_abs_Q>
2

> <i_lp_mmshare_version>
62121

> <i_m_Source_File_Index>
113

> <i_phase_Input_Structure_Number>
133

> <i_phase_Reference_Structure>
134

> <i_phase_Structure_Number>
133

> <Molecule Name>
187

> <Rotatable Bonds>
5

> <i_f3d_flags>
0

> <b_lp_Chiralities_Consistent>
1

> <r_canvas_IC50_human_P2Y14R,_nM>
20.8

> <r_canvas_pIC50>
7.68193666503724

> <r_epik_Charging_Adjusted_Penalty>
0.00163499537856281

> <r_epik_Ionization_Penalty>
  0.0009

> <r_epik_Ionization_Penalty_Charging>
  0.0009

> <r_epik_Ionization_Penalty_Neutral>
  0.0000

> <r_epik_State_Penalty>
  0.0007

> <r_lp_Energy>
76.685621

> <r_phase_Similarity_to_Reference>
0.971605911614858

> <s_canvas_CHEMBLID>
CHEMBL

> <s_canvas_Compound>
8

> <s_canvas_Paper>
Wen2023

> <s_epik_cmdline>
J2VwaWtfcHl0aG9uJywgJy1waCcsICc3LjAnLCAnLXRuJywgJzgnLCAnLW1hJywgJzUwMCcsICctaW1hZScsICc8aW5maWxlLm1hZT4nLCAnLW9tYWUnLCAnPG91dGZpbGUubWFlPic=

> <s_epik_input>
RkMoRikoRiljMVtjSF1bY0hdYyhbY0hdW2NIXTEpLWMoW2NIXTIpW2NIXVtjSF1jKGMyMyljKFtjSF1jKFtjSF0zKUMoPU8pW09IXSktYzRbY0hdW2NIXWMoW2NIXVtjSF00KUMoW09IXSkoW0NIMl01KVtDSDJdQzU2W0NIMl1bTkhdW0NIMl02

> <s_lp_Force_Field>
S-OPLS

> <s_lp_Variant>
187-1

> <s_m_Source_File>
database-aligned.sdf

> <s_m_Source_Path>
/data/matteo/P2Y14-antagonists-piperidineDerivatives-Wen2023/14052024-optimized-alignment

> <s_m_entry_id>
113

> <s_m_entry_name>
database-aligned.113

> <s_m_job_name>
align_ligands_1

> <s_phase_Alignment_Method>
snapped core

> <s_phase_Alignment_Reason>


> <s_phase_Core_SMARTS>
A1[A]AA12AA(A2)a3aaa(aa3)-a(aaa4)a(a45)aaa(a5)-a6aaaaa6

$$$$
188
                    3D
 Schrodinger Suite 2023-2.
 64 69  0  0  1  0            999 V2000
   -5.0261    1.4324    0.2838 F   0  0  0  0  0  0
   -4.4843    0.5364    1.1094 C   0  0  0  0  0  0
   -4.7261    0.9091    2.3654 F   0  0  0  0  0  0
   -5.0718   -0.6406    0.8904 F   0  0  0  0  0  0
   -2.9805    0.4435    0.8954 C   0  0  0  0  0  0
   -2.2454    1.5776    0.4941 C   0  0  0  0  0  0
   -2.2992   -0.7723    1.1122 C   0  0  0  0  0  0
   -0.8521    1.4946    0.3065 C   0  0  0  0  0  0
   -0.9062   -0.8510    0.9207 C   0  0  0  0  0  0
   -0.1610    0.2796    0.5158 C   0  0  0  0  0  0
    1.3001    0.1930    0.3226 C   0  0  0  0  0  0
    2.1524    1.2383    0.7416 C   0  0  0  0  0  0
    1.8847   -0.9390   -0.2850 C   0  0  0  0  0  0
    3.5501    1.1548    0.5712 C   0  0  0  0  0  0
    3.2777   -1.0307   -0.4622 C   0  0  0  0  0  0
    4.1320    0.0089   -0.0274 C   0  0  0  0  0  0
    4.3632    2.2211    1.0016 C   0  0  0  0  0  0
    5.5422   -0.0679   -0.1843 C   0  0  0  0  0  0
    5.7637    2.1649    0.8405 C   0  0  0  0  0  0
    6.2189   -1.2368   -0.7759 C   0  0  0  0  0  0
    6.3353    1.0178    0.2468 C   0  0  0  0  0  0
    6.6335    3.3065    1.2938 C   0  0  0  0  0  0
    6.9102   -1.1235   -1.9992 C   0  0  0  0  0  0
    6.1956   -2.4906   -0.1313 C   0  0  0  0  0  0
    7.8718    3.2234    1.1339 O   0  0  0  0  0  0
    6.0939    4.3069    1.8173 O   0  5  0  0  0  0
    7.5479   -2.2386   -2.5763 C   0  0  0  0  0  0
    6.8300   -3.6077   -0.7058 C   0  0  0  0  0  0
    7.5223   -3.4998   -1.9335 C   0  0  0  0  0  0
    8.1668   -4.7603   -2.5405 C   0  0  0  0  0  0
    7.0887   -5.6301   -2.9105 O   0  0  0  0  0  0
    9.1677   -4.5137   -3.6951 C   0  0  0  0  0  0
    9.1681   -5.4314   -1.5741 C   0  0  0  0  0  0
    7.3557   -6.8902   -3.5159 C   0  0  0  0  0  0
   10.0500   -4.3387   -2.3607 C   0  0  0  0  0  0
   10.4623   -2.9896   -1.7400 C   0  0  0  0  0  0
   11.5601   -4.5695   -2.4519 C   0  0  0  0  0  0
   11.7201   -3.6152   -1.3652 N   0  3  0  0  0  0
   -2.7525    2.5163    0.3258 H   0  0  0  0  0  0
   -2.8362   -1.6557    1.4243 H   0  0  0  0  0  0
   -0.3138    2.3769   -0.0078 H   0  0  0  0  0  0
   -0.4080   -1.7929    1.0977 H   0  0  0  0  0  0
    1.7300    2.1153    1.2107 H   0  0  0  0  0  0
    1.2616   -1.7514   -0.6290 H   0  0  0  0  0  0
    3.6721   -1.9144   -0.9401 H   0  0  0  0  0  0
    3.9028    3.0873    1.4554 H   0  0  0  0  0  0
    7.4069    0.9553    0.1217 H   0  0  0  0  0  0
    6.9412   -0.1721   -2.5103 H   0  0  0  0  0  0
    5.6734   -2.6014    0.8080 H   0  0  0  0  0  0
    8.0357   -2.0807   -3.5225 H   0  0  0  0  0  0
    6.7746   -4.5600   -0.1991 H   0  0  0  0  0  0
    9.4838   -5.3934   -4.2535 H   0  0  0  0  0  0
    9.0557   -3.6438   -4.3361 H   0  0  0  0  0  0
    9.0336   -5.2536   -0.5072 H   0  0  0  0  0  0
    9.4774   -6.4481   -1.8113 H   0  0  0  0  0  0
    6.4060   -7.3968   -3.6863 H   0  0  0  0  0  0
    7.9507   -7.5458   -2.8829 H   0  0  0  0  0  0
    7.8362   -6.7928   -4.4883 H   0  0  0  0  0  0
   10.6008   -2.1924   -2.4729 H   0  0  0  0  0  0
    9.8843   -2.6602   -0.8760 H   0  0  0  0  0  0
   11.8916   -5.5786   -2.2057 H   0  0  0  0  0  0
   12.0007   -4.2099   -3.3841 H   0  0  0  0  0  0
   12.5244   -3.0112   -1.4572 H   0  0  0  0  0  0
   11.6518   -4.0652   -0.4635 H   0  0  0  0  0  0
  1  2  1  0  0  0
  2  3  1  0  0  0
  2  4  1  0  0  0
  2  5  1  0  0  0
  5  6  2  0  0  0
  5  7  1  0  0  0
  6  8  1  0  0  0
  6 39  1  0  0  0
  7  9  2  0  0  0
  7 40  1  0  0  0
  8 10  2  0  0  0
  8 41  1  0  0  0
  9 10  1  0  0  0
  9 42  1  0  0  0
 10 11  1  0  0  0
 11 12  2  0  0  0
 11 13  1  0  0  0
 12 14  1  0  0  0
 12 43  1  0  0  0
 13 15  2  0  0  0
 13 44  1  0  0  0
 14 16  1  0  0  0
 14 17  2  0  0  0
 15 16  1  0  0  0
 15 45  1  0  0  0
 16 18  2  0  0  0
 17 19  1  0  0  0
 17 46  1  0  0  0
 18 20  1  0  0  0
 18 21  1  0  0  0
 19 22  1  0  0  0
 19 21  2  0  0  0
 20 23  2  0  0  0
 20 24  1  0  0  0
 21 47  1  0  0  0
 22 25  2  0  0  0
 22 26  1  0  0  0
 23 27  1  0  0  0
 23 48  1  0  0  0
 24 28  2  0  0  0
 24 49  1  0  0  0
 27 29  2  0  0  0
 27 50  1  0  0  0
 28 29  1  0  0  0
 28 51  1  0  0  0
 29 30  1  0  0  0
 30 31  1  0  0  0
 30 32  1  0  0  0
 30 33  1  0  0  0
 31 34  1  0  0  0
 32 35  1  0  0  0
 32 52  1  0  0  0
 32 53  1  0  0  0
 33 35  1  0  0  0
 33 54  1  0  0  0
 33 55  1  0  0  0
 34 56  1  0  0  0
 34 57  1  0  0  0
 34 58  1  0  0  0
 35 36  1  0  0  0
 35 37  1  0  0  0
 36 38  1  0  0  0
 36 59  1  0  0  0
 36 60  1  0  0  0
 37 38  1  0  0  0
 37 61  1  0  0  0
 37 62  1  0  0  0
 38 63  1  0  0  0
 38 64  1  0  0  0
M  CHG  2  26  -1  38   1
M  END
> <i_epik_Tot_Q>
0

> <i_epik_Tot_abs_Q>
2

> <i_lp_mmshare_version>
62121

> <i_m_Source_File_Index>
114

> <i_phase_Input_Structure_Number>
134

> <i_phase_Reference_Structure>
146

> <i_phase_Structure_Number>
134

> <Molecule Name>
188

> <Rotatable Bonds>
6

> <i_f3d_flags>
0

> <b_lp_Chiralities_Consistent>
1

> <r_canvas_IC50_human_P2Y14R,_nM>
46.5

> <r_canvas_pIC50>
7.33254704711005

> <r_epik_Charging_Adjusted_Penalty>
0.00168550644907312

> <r_epik_Ionization_Penalty>
  0.0010

> <r_epik_Ionization_Penalty_Charging>
  0.0010

> <r_epik_Ionization_Penalty_Neutral>
  0.0000

> <r_epik_State_Penalty>
  0.0007

> <r_lp_Energy>
68.48724

> <r_phase_Similarity_to_Reference>
0.836965450164059

> <s_canvas_CHEMBLID>
CHEMBL

> <s_canvas_Compound>
9

> <s_canvas_Paper>
Wen2023

> <s_epik_cmdline>
J2VwaWtfcHl0aG9uJywgJy1waCcsICc3LjAnLCAnLXRuJywgJzgnLCAnLW1hJywgJzUwMCcsICctaW1hZScsICc8aW5maWxlLm1hZT4nLCAnLW9tYWUnLCAnPG91dGZpbGUubWFlPic=

> <s_epik_input>
RkMoRikoRiljMVtjSF1bY0hdYyhbY0hdW2NIXTEpLWMoW2NIXTIpW2NIXVtjSF1jKGMyMyljKFtjSF1jKFtjSF0zKUMoPU8pW09IXSktYzRbY0hdW2NIXWMoW2NIXVtjSF00KUMoW0NIMl01KShPW0NIM10pW0NIMl1DNTZbQ0gyXVtOSF1bQ0gyXTY=

> <s_lp_Force_Field>
S-OPLS

> <s_lp_Variant>
188-1

> <s_m_Source_File>
database-aligned.sdf

> <s_m_Source_Path>
/data/matteo/P2Y14-antagonists-piperidineDerivatives-Wen2023/14052024-optimized-alignment

> <s_m_entry_id>
114

> <s_m_entry_name>
database-aligned.114

> <s_m_job_name>
align_ligands_1

> <s_phase_Alignment_Method>
snapped core

> <s_phase_Alignment_Reason>


> <s_phase_Core_SMARTS>
A1[A]AA1a2aaa(aa2)-a(aaa3)a(a34)aaa(a4)-a5aaaaa5

$$$$
189
                    3D
 Schrodinger Suite 2023-2.
 56 60  0  0  1  0            999 V2000
   -5.0261    1.4324    0.2838 F   0  0  0  0  0  0
   -4.4843    0.5364    1.1094 C   0  0  0  0  0  0
   -4.7261    0.9091    2.3654 F   0  0  0  0  0  0
   -5.0718   -0.6406    0.8904 F   0  0  0  0  0  0
   -2.9805    0.4435    0.8954 C   0  0  0  0  0  0
   -2.2992   -0.7723    1.1122 C   0  0  0  0  0  0
   -2.2454    1.5776    0.4941 C   0  0  0  0  0  0
   -0.9062   -0.8510    0.9207 C   0  0  0  0  0  0
   -0.8521    1.4946    0.3065 C   0  0  0  0  0  0
   -0.1610    0.2796    0.5158 C   0  0  0  0  0  0
    1.3001    0.1930    0.3226 C   0  0  0  0  0  0
    2.1524    1.2383    0.7416 C   0  0  0  0  0  0
    1.8847   -0.9390   -0.2850 C   0  0  0  0  0  0
    3.5501    1.1548    0.5712 C   0  0  0  0  0  0
    3.2777   -1.0307   -0.4622 C   0  0  0  0  0  0
    4.1320    0.0089   -0.0274 C   0  0  0  0  0  0
    4.3632    2.2211    1.0016 C   0  0  0  0  0  0
    5.5422   -0.0679   -0.1843 C   0  0  0  0  0  0
    5.7637    2.1649    0.8405 C   0  0  0  0  0  0
    6.2189   -1.2368   -0.7759 C   0  0  0  0  0  0
    6.3353    1.0178    0.2468 C   0  0  0  0  0  0
    6.6335    3.3065    1.2938 C   0  0  0  0  0  0
    6.9102   -1.1235   -1.9992 C   0  0  0  0  0  0
    6.1956   -2.4906   -0.1313 C   0  0  0  0  0  0
    7.8718    3.2234    1.1339 O   0  0  0  0  0  0
    6.0939    4.3069    1.8173 O   0  5  0  0  0  0
    7.5479   -2.2386   -2.5763 C   0  0  0  0  0  0
    6.8300   -3.6077   -0.7058 C   0  0  0  0  0  0
    7.5223   -3.4998   -1.9335 C   0  0  0  0  0  0
    8.1668   -4.7603   -2.5405 C   0  0  2  0  0  0
    9.1681   -5.4314   -1.5741 C   0  0  0  0  0  0
    9.1677   -4.5137   -3.6951 C   0  0  0  0  0  0
   10.3736   -4.4725   -1.5796 N   0  3  0  0  0  0
   10.3949   -3.8857   -3.0017 C   0  0  0  0  0  0
   -2.8411   -1.6517    1.4277 H   0  0  0  0  0  0
   -2.7463    2.5198    0.3281 H   0  0  0  0  0  0
   -0.4079   -1.7928    1.0983 H   0  0  0  0  0  0
   -0.3136    2.3771   -0.0069 H   0  0  0  0  0  0
    1.7301    2.1154    1.2106 H   0  0  0  0  0  0
    1.2615   -1.7514   -0.6287 H   0  0  0  0  0  0
    3.6720   -1.9145   -0.9399 H   0  0  0  0  0  0
    3.9023    3.0870    1.4553 H   0  0  0  0  0  0
    7.4069    0.9555    0.1218 H   0  0  0  0  0  0
    6.9429   -0.1715   -2.5092 H   0  0  0  0  0  0
    5.6737   -2.6008    0.8083 H   0  0  0  0  0  0
    8.0468   -2.0994   -3.5221 H   0  0  0  0  0  0
    6.7701   -4.5580   -0.1965 H   0  0  0  0  0  0
    7.3784   -5.4516   -2.8404 H   0  0  0  0  0  0
    8.7819   -5.5855   -0.5670 H   0  0  0  0  0  0
    9.4838   -6.4046   -1.9540 H   0  0  0  0  0  0
    9.4517   -5.4665   -4.1456 H   0  0  0  0  0  0
    8.7697   -3.9019   -4.5042 H   0  0  0  0  0  0
   10.2147   -3.7263   -0.9174 H   0  0  0  0  0  0
   11.3218   -4.1365   -3.5180 H   0  0  0  0  0  0
   10.3207   -2.7997   -2.9446 H   0  0  0  0  0  0
   11.2304   -4.9613   -1.3624 H   0  0  0  0  0  0
  1  2  1  0  0  0
  2  3  1  0  0  0
  2  4  1  0  0  0
  2  5  1  0  0  0
  5  6  2  0  0  0
  5  7  1  0  0  0
  6  8  1  0  0  0
  6 35  1  0  0  0
  7  9  2  0  0  0
  7 36  1  0  0  0
  8 10  2  0  0  0
  8 37  1  0  0  0
  9 10  1  0  0  0
  9 38  1  0  0  0
 10 11  1  0  0  0
 11 12  2  0  0  0
 11 13  1  0  0  0
 12 14  1  0  0  0
 12 39  1  0  0  0
 13 15  2  0  0  0
 13 40  1  0  0  0
 14 16  1  0  0  0
 14 17  2  0  0  0
 15 16  1  0  0  0
 15 41  1  0  0  0
 16 18  2  0  0  0
 17 19  1  0  0  0
 17 42  1  0  0  0
 18 20  1  0  0  0
 18 21  1  0  0  0
 19 22  1  0  0  0
 19 21  2  0  0  0
 20 23  2  0  0  0
 20 24  1  0  0  0
 21 43  1  0  0  0
 22 25  2  0  0  0
 22 26  1  0  0  0
 23 27  1  0  0  0
 23 44  1  0  0  0
 24 28  2  0  0  0
 24 45  1  0  0  0
 27 29  2  0  0  0
 27 46  1  0  0  0
 28 29  1  0  0  0
 28 47  1  0  0  0
 29 30  1  0  0  0
 30 31  1  0  0  0
 30 32  1  0  0  0
 30 48  1  0  0  0
 31 33  1  0  0  0
 31 49  1  0  0  0
 31 50  1  0  0  0
 32 34  1  0  0  0
 32 51  1  0  0  0
 32 52  1  0  0  0
 33 34  1  0  0  0
 33 53  1  0  0  0
 33 56  1  0  0  0
 34 54  1  0  0  0
 34 55  1  0  0  0
M  CHG  2  26  -1  33   1
M  END
> <i_epik_Tot_Q>
0

> <i_epik_Tot_abs_Q>
2

> <i_lp_mmshare_version>
62121

> <i_m_Source_File_Index>
115

> <i_phase_Input_Structure_Number>
135

> <i_phase_Reference_Structure>
116

> <i_phase_Structure_Number>
135

> <Molecule Name>
189

> <Rotatable Bonds>
5

> <i_f3d_flags>
0

> <b_lp_Chiralities_Consistent>
1

> <r_canvas_IC50_human_P2Y14R,_nM>
31.5

> <r_canvas_pIC50>
7.5016894462104

> <r_epik_Charging_Adjusted_Penalty>
0.00154704958972549

> <r_epik_Ionization_Penalty>
  0.0008

> <r_epik_Ionization_Penalty_Charging>
  0.0008

> <r_epik_Ionization_Penalty_Neutral>
  0.0000

> <r_epik_State_Penalty>
  0.0007

> <r_lp_Energy>
65.36063

> <r_phase_Similarity_to_Reference>
0.746426035298229

> <s_canvas_CHEMBLID>
CHEMBL

> <s_canvas_Compound>
10

> <s_canvas_Paper>
Wen2023

> <s_epik_cmdline>
J2VwaWtfcHl0aG9uJywgJy1waCcsICc3LjAnLCAnLXRuJywgJzgnLCAnLW1hJywgJzUwMCcsICctaW1hZScsICc8aW5maWxlLm1hZT4nLCAnLW9tYWUnLCAnPG91dGZpbGUubWFlPic=

> <s_epik_input>
RkMoRikoRiljMVtjSF1bY0hdYyhbY0hdW2NIXTEpLWMoW2NIXTIpW2NIXVtjSF1jKGMyMyljKFtjSF1jKFtjSF0zKUMoPU8pW09IXSktYzRbY0hdW2NIXWMoW2NIXVtjSF00KVtDQEBIXTVbQ0gyXVtOSF1bQ0gyXVtDSDJdNQ==

> <s_lp_Force_Field>
S-OPLS

> <s_lp_Variant>
189-1

> <s_m_Source_File>
database-aligned.sdf

> <s_m_Source_Path>
/data/matteo/P2Y14-antagonists-piperidineDerivatives-Wen2023/14052024-optimized-alignment

> <s_m_entry_id>
115

> <s_m_entry_name>
database-aligned.115

> <s_m_job_name>
align_ligands_1

> <s_phase_Alignment_Method>
snapped core

> <s_phase_Alignment_Reason>


> <s_phase_Core_SMARTS>
A1A[A]AA1a2aaa(aa2)-a(aaa3)a(a34)aaa(a4)-a5aaaaa5

$$$$
190
                    3D
 Schrodinger Suite 2023-2.
 64 69  0  0  1  0            999 V2000
   -5.1220   -0.7557    0.9461 F   0  0  0  0  0  0
   -4.5559    0.4473    1.0483 C   0  0  0  0  0  0
   -5.0969    1.2432    0.1254 F   0  0  0  0  0  0
   -4.8240    0.9450    2.2548 F   0  0  0  0  0  0
   -3.0478    0.3723    0.8615 C   0  0  0  0  0  0
   -2.3177    1.5371    0.5499 C   0  0  0  0  0  0
   -2.3570   -0.8483    1.0111 C   0  0  0  0  0  0
   -0.9206    1.4797    0.3825 C   0  0  0  0  0  0
   -0.9597   -0.9003    0.8426 C   0  0  0  0  0  0
   -0.2180    0.2609    0.5251 C   0  0  0  0  0  0
    1.2486    0.2027    0.3486 C   0  0  0  0  0  0
    2.0768    1.2640    0.7773 C   0  0  0  0  0  0
    1.8640   -0.9144   -0.2580 C   0  0  0  0  0  0
    3.4763    1.2153    0.6088 C   0  0  0  0  0  0
    3.2599   -0.9746   -0.4274 C   0  0  0  0  0  0
    4.0871    0.0856    0.0087 C   0  0  0  0  0  0
    4.2617    2.3021    1.0400 C   0  0  0  0  0  0
    5.4983    0.0460   -0.1496 C   0  0  0  0  0  0
    5.6629    2.2833    0.8757 C   0  0  0  0  0  0
    6.2090   -1.1018   -0.7411 C   0  0  0  0  0  0
    6.2631    1.1521    0.2804 C   0  0  0  0  0  0
    6.5039    3.4464    1.3287 C   0  0  0  0  0  0
    6.2463   -2.3491   -0.0835 C   0  0  0  0  0  0
    6.8821   -0.9699   -1.9730 C   0  0  0  0  0  0
    7.7430    3.3979    1.1597 O   0  0  0  0  0  0
    5.9409    4.4290    1.8611 O   0  5  0  0  0  0
    6.9390   -3.4383   -0.6447 C   0  0  0  0  0  0
    7.5775   -2.0567   -2.5367 C   0  0  0  0  0  0
    7.6305   -3.3031   -1.8698 C   0  0  0  0  0  0
    8.3634   -4.5118   -2.4654 C   0  0  2  0  0  0
    7.4211   -5.4248   -2.9969 O   0  0  0  0  0  0
    9.2177   -5.3056   -1.4137 C   0  0  0  0  0  0
    9.3606   -4.1744   -3.6241 C   0  0  0  0  0  0
   10.6332   -5.2229   -1.9731 C   0  0  2  0  0  0
   10.4157   -5.2574   -3.4549 C   0  0  2  0  0  0
   11.7148   -6.2822   -1.8098 C   0  0  0  0  0  0
   11.8523   -5.1859   -3.9568 C   0  0  0  0  0  0
   12.5852   -6.0555   -2.9961 N   0  3  0  0  0  0
   -2.8291    2.4818    0.4371 H   0  0  0  0  0  0
   -2.8922   -1.7529    1.2592 H   0  0  0  0  0  0
   -0.3898    2.3870    0.1342 H   0  0  0  0  0  0
   -0.4570   -1.8479    0.9693 H   0  0  0  0  0  0
    1.6351    2.1301    1.2486 H   0  0  0  0  0  0
    1.2634   -1.7398   -0.6103 H   0  0  0  0  0  0
    3.6791   -1.8476   -0.9042 H   0  0  0  0  0  0
    3.7794    3.1559    1.4943 H   0  0  0  0  0  0
    7.3359    1.1179    0.1532 H   0  0  0  0  0  0
    5.7354   -2.4739    0.8601 H   0  0  0  0  0  0
    6.8619   -0.0246   -2.4958 H   0  0  0  0  0  0
    6.9329   -4.3843   -0.1236 H   0  0  0  0  0  0
    8.0584   -1.9098   -3.4914 H   0  0  0  0  0  0
    6.9357   -4.9906   -3.6820 H   0  0  0  0  0  0
    9.1892   -4.8807   -0.4104 H   0  0  0  0  0  0
    8.9005   -6.3471   -1.3344 H   0  0  0  0  0  0
    8.9002   -4.1592   -4.6129 H   0  0  0  0  0  0
    9.8473   -3.2107   -3.4670 H   0  0  0  0  0  0
   11.0542   -4.2564   -1.6827 H   0  0  0  0  0  0
    9.9896   -6.2189   -3.7531 H   0  0  0  0  0  0
   12.2679   -6.1826   -0.8756 H   0  0  0  0  0  0
   11.2906   -7.2862   -1.8579 H   0  0  0  0  0  0
   11.9604   -5.5348   -4.9840 H   0  0  0  0  0  0
   12.2409   -4.1686   -3.8930 H   0  0  0  0  0  0
   13.4419   -5.5975   -2.7186 H   0  0  0  0  0  0
   12.7987   -6.9448   -3.4248 H   0  0  0  0  0  0
  1  2  1  0  0  0
  2  3  1  0  0  0
  2  4  1  0  0  0
  2  5  1  0  0  0
  5  6  2  0  0  0
  5  7  1  0  0  0
  6  8  1  0  0  0
  6 39  1  0  0  0
  7  9  2  0  0  0
  7 40  1  0  0  0
  8 10  2  0  0  0
  8 41  1  0  0  0
  9 10  1  0  0  0
  9 42  1  0  0  0
 10 11  1  0  0  0
 11 12  2  0  0  0
 11 13  1  0  0  0
 12 14  1  0  0  0
 12 43  1  0  0  0
 13 15  2  0  0  0
 13 44  1  0  0  0
 14 16  1  0  0  0
 14 17  2  0  0  0
 15 16  1  0  0  0
 15 45  1  0  0  0
 16 18  2  0  0  0
 17 19  1  0  0  0
 17 46  1  0  0  0
 18 20  1  0  0  0
 18 21  1  0  0  0
 19 22  1  0  0  0
 19 21  2  0  0  0
 20 23  2  0  0  0
 20 24  1  0  0  0
 21 47  1  0  0  0
 22 25  2  0  0  0
 22 26  1  0  0  0
 23 27  1  0  0  0
 23 48  1  0  0  0
 24 28  2  0  0  0
 24 49  1  0  0  0
 27 29  2  0  0  0
 27 50  1  0  0  0
 28 29  1  0  0  0
 28 51  1  0  0  0
 29 30  1  0  0  0
 30 31  1  0  0  0
 30 32  1  0  0  0
 30 33  1  0  0  0
 31 52  1  0  0  0
 32 34  1  0  0  0
 32 53  1  0  0  0
 32 54  1  0  0  0
 33 35  1  0  0  0
 33 55  1  0  0  0
 33 56  1  0  0  0
 34 36  1  0  0  0
 34 35  1  0  0  0
 34 57  1  0  0  0
 35 37  1  0  0  0
 35 58  1  0  0  0
 36 38  1  0  0  0
 36 59  1  0  0  0
 36 60  1  0  0  0
 37 38  1  0  0  0
 37 61  1  0  0  0
 37 62  1  0  0  0
 38 63  1  0  0  0
 38 64  1  0  0  0
M  CHG  2  26  -1  38   1
M  END
> <i_epik_Tot_Q>
0

> <i_epik_Tot_abs_Q>
2

> <i_lp_mmshare_version>
62121

> <i_m_Source_File_Index>
116

> <i_phase_Input_Structure_Number>
136

> <i_phase_Reference_Structure>
116

> <i_phase_Structure_Number>
136

> <Molecule Name>
190

> <Rotatable Bonds>
5

> <i_f3d_flags>
0

> <b_lp_Chiralities_Consistent>
1

> <r_canvas_IC50_human_P2Y14R,_nM>
9.48

> <r_canvas_pIC50>
8.02319166266193

> <r_epik_Charging_Adjusted_Penalty>
0.00151627506942761

> <r_epik_Ionization_Penalty>
  0.0008

> <r_epik_Ionization_Penalty_Charging>
  0.0008

> <r_epik_Ionization_Penalty_Neutral>
  0.0000

> <r_epik_State_Penalty>
  0.0007

> <r_lp_Energy>
84.859814

> <r_phase_Similarity_to_Reference>
0.771227359002964

> <s_canvas_CHEMBLID>
CHEMBL

> <s_canvas_Compound>
11

> <s_canvas_Paper>
Wen2023

> <s_epik_cmdline>
J2VwaWtfcHl0aG9uJywgJy1waCcsICc3LjAnLCAnLXRuJywgJzgnLCAnLW1hJywgJzUwMCcsICctaW1hZScsICc8aW5maWxlLm1hZT4nLCAnLW9tYWUnLCAnPG91dGZpbGUubWFlPic=

> <s_epik_input>
RkMoRikoRiljMVtjSF1bY0hdYyhbY0hdW2NIXTEpLWMoW2NIXTIpW2NIXVtjSF1jKGMyMyljKFtjSF1jKFtjSF0zKUMoPU8pW09IXSktYzRbY0hdW2NIXWMoW2NIXVtjSF00KVtDQF0oW09IXSkoW0NIMl01KVtDSDJdW0NASF0oW0NAQEhdNTYpW0NIMl1bTkhdW0NIMl02

> <s_lp_Force_Field>
S-OPLS

> <s_lp_Variant>
190-1

> <s_m_Source_File>
database-aligned.sdf

> <s_m_Source_Path>
/data/matteo/P2Y14-antagonists-piperidineDerivatives-Wen2023/14052024-optimized-alignment

> <s_m_entry_id>
116

> <s_m_entry_name>
database-aligned.116

> <s_m_job_name>
align_ligands_1

> <s_phase_Alignment_Method>
flexible least-squares core

> <s_phase_Alignment_Reason>
distorted bond in snapped structure

> <s_phase_Core_SMARTS>
A1A[A]AA1a2aaa(aa2)-a(aaa3)a(a34)aaa(a4)-a5aaaaa5

$$$$
191
                    3D
 Schrodinger Suite 2023-2.
 61 66  0  0  1  0            999 V2000
   -5.1626   -0.7680    0.7528 F   0  0  0  0  0  0
   -4.5952    0.3865    1.1044 C   0  0  0  0  0  0
   -5.1492    1.3606    0.3817 F   0  0  0  0  0  0
   -4.8463    0.6129    2.3932 F   0  0  0  0  0  0
   -3.0894    0.3396    0.8894 C   0  0  0  0  0  0
   -2.3728    1.5168    0.5913 C   0  0  0  0  0  0
   -2.3868   -0.8772    1.0080 C   0  0  0  0  0  0
   -0.9770    1.4742    0.4094 C   0  0  0  0  0  0
   -0.9909   -0.9144    0.8250 C   0  0  0  0  0  0
   -0.2628    0.2596    0.5250 C   0  0  0  0  0  0
    1.2035    0.2192    0.3463 C   0  0  0  0  0  0
    2.0210    1.2696    0.8184 C   0  0  0  0  0  0
    1.8298   -0.8695   -0.2991 C   0  0  0  0  0  0
    3.4218    1.2361    0.6590 C   0  0  0  0  0  0
    3.2271   -0.9124   -0.4635 C   0  0  0  0  0  0
    4.0453    0.1344    0.0207 C   0  0  0  0  0  0
    4.1946    2.3107    1.1401 C   0  0  0  0  0  0
    5.4589    0.1107   -0.1256 C   0  0  0  0  0  0
    5.5970    2.3081    0.9897 C   0  0  0  0  0  0
    6.1896   -1.0060   -0.7543 C   0  0  0  0  0  0
    6.2107    1.2051    0.3565 C   0  0  0  0  0  0
    6.4243    3.4584    1.4976 C   0  0  0  0  0  0
    6.9467   -0.7938   -1.9259 C   0  0  0  0  0  0
    6.1767   -2.2977   -0.1849 C   0  0  0  0  0  0
    7.6655    3.4256    1.3421 O   0  0  0  0  0  0
    5.8475    4.4158    2.0603 O   0  5  0  0  0  0
    7.6721   -1.8448   -2.5189 C   0  0  0  0  0  0
    6.8962   -3.3547   -0.7746 C   0  0  0  0  0  0
    7.6564   -3.1353   -1.9436 C   0  0  0  0  0  0
    8.4164   -4.2510   -2.5455 C   0  0  0  0  0  0
    9.0461   -4.2176   -3.7382 C   0  0  0  0  0  0
    8.6468   -5.6080   -1.8692 C   0  0  0  0  0  0
    9.6445   -5.5624   -4.0253 C   0  0  2  0  0  0
    9.8924   -6.0627   -2.6320 C   0  0  2  0  0  0
   10.9997   -5.8555   -4.6474 C   0  0  0  0  0  0
   10.4030   -7.4624   -2.9294 C   0  0  0  0  0  0
   11.2887   -7.2191   -4.1088 N   0  3  0  0  0  0
   -2.8899    2.4608    0.5036 H   0  0  0  0  0  0
   -2.9142   -1.7889    1.2468 H   0  0  0  0  0  0
   -0.4553    2.3907    0.1758 H   0  0  0  0  0  0
   -0.4776   -1.8590    0.9306 H   0  0  0  0  0  0
    1.5695    2.1136    1.3196 H   0  0  0  0  0  0
    1.2363   -1.6857   -0.6841 H   0  0  0  0  0  0
    3.6532   -1.7636   -0.9718 H   0  0  0  0  0  0
    3.7017    3.1423    1.6235 H   0  0  0  0  0  0
    7.2849    1.1844    0.2400 H   0  0  0  0  0  0
    6.9765    0.1886   -2.3746 H   0  0  0  0  0  0
    5.6093   -2.4813    0.7159 H   0  0  0  0  0  0
    8.2432   -1.6369   -3.4106 H   0  0  0  0  0  0
    6.8573   -4.3304   -0.3142 H   0  0  0  0  0  0
    9.0674   -3.4042   -4.4478 H   0  0  0  0  0  0
    8.8665   -5.5070   -0.8058 H   0  0  0  0  0  0
    7.7835   -6.2609   -2.0028 H   0  0  0  0  0  0
    8.8778   -6.1535   -4.5327 H   0  0  0  0  0  0
   10.7264   -5.5095   -2.1881 H   0  0  0  0  0  0
   10.9786   -5.8448   -5.7373 H   0  0  0  0  0  0
   11.7596   -5.1510   -4.3053 H   0  0  0  0  0  0
   10.9477   -7.9024   -2.0937 H   0  0  0  0  0  0
    9.5881   -8.1313   -3.2095 H   0  0  0  0  0  0
   11.0985   -7.9174   -4.8135 H   0  0  0  0  0  0
   12.2594   -7.2696   -3.8342 H   0  0  0  0  0  0
  1  2  1  0  0  0
  2  3  1  0  0  0
  2  4  1  0  0  0
  2  5  1  0  0  0
  5  6  2  0  0  0
  5  7  1  0  0  0
  6  8  1  0  0  0
  6 38  1  0  0  0
  7  9  2  0  0  0
  7 39  1  0  0  0
  8 10  2  0  0  0
  8 40  1  0  0  0
  9 10  1  0  0  0
  9 41  1  0  0  0
 10 11  1  0  0  0
 11 12  2  0  0  0
 11 13  1  0  0  0
 12 14  1  0  0  0
 12 42  1  0  0  0
 13 15  2  0  0  0
 13 43  1  0  0  0
 14 16  1  0  0  0
 14 17  2  0  0  0
 15 16  1  0  0  0
 15 44  1  0  0  0
 16 18  2  0  0  0
 17 19  1  0  0  0
 17 45  1  0  0  0
 18 20  1  0  0  0
 18 21  1  0  0  0
 19 22  1  0  0  0
 19 21  2  0  0  0
 20 23  2  0  0  0
 20 24  1  0  0  0
 21 46  1  0  0  0
 22 25  2  0  0  0
 22 26  1  0  0  0
 23 27  1  0  0  0
 23 47  1  0  0  0
 24 28  2  0  0  0
 24 48  1  0  0  0
 27 29  2  0  0  0
 27 49  1  0  0  0
 28 29  1  0  0  0
 28 50  1  0  0  0
 29 30  1  0  0  0
 30 31  2  0  0  0
 30 32  1  0  0  0
 31 33  1  0  0  0
 31 51  1  0  0  0
 32 34  1  0  0  0
 32 52  1  0  0  0
 32 53  1  0  0  0
 33 35  1  0  0  0
 33 34  1  0  0  0
 33 54  1  0  0  0
 34 36  1  0  0  0
 34 55  1  0  0  0
 35 37  1  0  0  0
 35 56  1  0  0  0
 35 57  1  0  0  0
 36 37  1  0  0  0
 36 58  1  0  0  0
 36 59  1  0  0  0
 37 60  1  0  0  0
 37 61  1  0  0  0
M  CHG  2  26  -1  37   1
M  END
> <i_epik_Tot_Q>
0

> <i_epik_Tot_abs_Q>
2

> <i_lp_mmshare_version>
62121

> <i_m_Source_File_Index>
117

> <i_phase_Input_Structure_Number>
137

> <i_phase_Reference_Structure>
144

> <i_phase_Structure_Number>
137

> <Molecule Name>
191

> <Rotatable Bonds>
5

> <i_f3d_flags>
0

> <b_lp_Chiralities_Consistent>
1

> <r_canvas_IC50_human_P2Y14R,_nM>
16.6

> <r_canvas_pIC50>
7.77989191195995

> <r_epik_Charging_Adjusted_Penalty>
0.00130262735057213

> <r_epik_Ionization_Penalty>
  0.0007

> <r_epik_Ionization_Penalty_Charging>
  0.0007

> <r_epik_Ionization_Penalty_Neutral>
  0.0000

> <r_epik_State_Penalty>
  0.0006

> <r_lp_Energy>
67.167242

> <r_phase_Similarity_to_Reference>
0.916983114727731

> <s_canvas_CHEMBLID>
CHEMBL

> <s_canvas_Compound>
12

> <s_canvas_Paper>
Wen2023

> <s_epik_cmdline>
J2VwaWtfcHl0aG9uJywgJy1waCcsICc3LjAnLCAnLXRuJywgJzgnLCAnLW1hJywgJzUwMCcsICctaW1hZScsICc8aW5maWxlLm1hZT4nLCAnLW9tYWUnLCAnPG91dGZpbGUubWFlPic=

> <s_epik_input>
RkMoRikoRiljMVtjSF1bY0hdYyhbY0hdW2NIXTEpLWMoW2NIXTIpW2NIXVtjSF1jKGMyMyljKFtjSF1jKFtjSF0zKUMoPU8pW09IXSktYzRbY0hdW2NIXWMoW2NIXVtjSF00KUMoPVtDSF01KVtDSDJdW0NASF0oW0NAQEhdNTYpW0NIMl1bTkhdW0NIMl02

> <s_lp_Force_Field>
S-OPLS

> <s_lp_Variant>
191-1

> <s_m_Source_File>
database-aligned.sdf

> <s_m_Source_Path>
/data/matteo/P2Y14-antagonists-piperidineDerivatives-Wen2023/14052024-optimized-alignment

> <s_m_entry_id>
117

> <s_m_entry_name>
database-aligned.117

> <s_m_job_name>
align_ligands_1

> <s_phase_Alignment_Method>
flexible least-squares core

> <s_phase_Alignment_Reason>
stereochemistry change

> <s_phase_Core_SMARTS>
a1aaaaa1-a(a2)aaa(a23)a(aaa3)-a4aaa(aa4)A5=AAA[A]AAA5

$$$$
192
                    3D
 Schrodinger Suite 2023-2.
 63 68  0  0  1  0            999 V2000
   -5.1154   -0.8079    1.0372 F   0  0  0  0  0  0
   -4.5680    0.4055    0.9553 C   0  0  0  0  0  0
   -5.1008    1.0359   -0.0917 F   0  0  0  0  0  0
   -4.8676    1.0835    2.0626 F   0  0  0  0  0  0
   -3.0559    0.3354    0.8018 C   0  0  0  0  0  0
   -2.3316    1.5006    0.4786 C   0  0  0  0  0  0
   -2.3571   -0.8759    0.9872 C   0  0  0  0  0  0
   -0.9315    1.4537    0.3361 C   0  0  0  0  0  0
   -0.9570   -0.9177    0.8421 C   0  0  0  0  0  0
   -0.2220    0.2442    0.5132 C   0  0  0  0  0  0
    1.2461    0.1947    0.3586 C   0  0  0  0  0  0
    2.0634    1.2504    0.8195 C   0  0  0  0  0  0
    1.8727   -0.9092   -0.2594 C   0  0  0  0  0  0
    3.4657    1.2069    0.6743 C   0  0  0  0  0  0
    3.2711   -0.9624   -0.4089 C   0  0  0  0  0  0
    4.0889    0.0903    0.0621 C   0  0  0  0  0  0
    4.2411    2.2863    1.1402 C   0  0  0  0  0  0
    5.5028    0.0573   -0.0749 C   0  0  0  0  0  0
    5.6449    2.2733    1.0001 C   0  0  0  0  0  0
    6.2264   -1.0720   -0.6874 C   0  0  0  0  0  0
    6.2576    1.1553    0.3926 C   0  0  0  0  0  0
    6.4744    3.4300    1.4895 C   0  0  0  0  0  0
    6.9383   -0.8941   -1.8917 C   0  0  0  0  0  0
    6.2384   -2.3455   -0.0799 C   0  0  0  0  0  0
    7.7176    3.3820    1.3547 O   0  0  0  0  0  0
    5.8977    4.4075    2.0166 O   0  5  0  0  0  0
    7.6459   -1.9610   -2.4781 C   0  0  0  0  0  0
    6.9418   -3.4156   -0.6644 C   0  0  0  0  0  0
    7.6682   -3.2330   -1.8618 C   0  0  0  0  0  0
    8.4163   -4.4170   -2.4792 C   0  0  2  0  0  0
    9.2269   -5.2795   -1.4588 C   0  0  0  0  0  0
    9.4071   -4.0777   -3.6349 C   0  0  0  0  0  0
   10.6340   -5.2705   -2.0448 C   0  0  2  0  0  0
   10.3890   -5.2336   -3.5234 C   0  0  2  0  0  0
   11.6462   -6.4032   -1.9399 C   0  0  0  0  0  0
   11.8186   -5.2411   -4.0503 C   0  0  0  0  0  0
   12.5089   -6.1905   -3.1342 N   0  3  0  0  0  0
   -2.8512    2.4370    0.3375 H   0  0  0  0  0  0
   -2.8862   -1.7816    1.2435 H   0  0  0  0  0  0
   -0.4027    2.3600    0.0793 H   0  0  0  0  0  0
   -0.4458   -1.8569    0.9949 H   0  0  0  0  0  0
    1.6100    2.1069    1.2975 H   0  0  0  0  0  0
    1.2783   -1.7285   -0.6362 H   0  0  0  0  0  0
    3.6986   -1.8248   -0.8972 H   0  0  0  0  0  0
    3.7492    3.1301    1.6029 H   0  0  0  0  0  0
    7.3323    1.1268    0.2819 H   0  0  0  0  0  0
    6.9391    0.0719   -2.3757 H   0  0  0  0  0  0
    5.6986   -2.5057    0.8422 H   0  0  0  0  0  0
    8.1615   -1.7803   -3.4085 H   0  0  0  0  0  0
    6.9186   -4.3820   -0.1827 H   0  0  0  0  0  0
    7.6441   -5.0643   -2.8982 H   0  0  0  0  0  0
    9.2344   -4.8746   -0.4464 H   0  0  0  0  0  0
    8.8256   -6.2928   -1.4131 H   0  0  0  0  0  0
    8.9226   -4.0075   -4.6092 H   0  0  0  0  0  0
    9.9412   -3.1449   -3.4477 H   0  0  0  0  0  0
   11.1240   -4.3451   -1.7298 H   0  0  0  0  0  0
    9.8916   -6.1520   -3.8468 H   0  0  0  0  0  0
   12.2202   -6.3740   -1.0134 H   0  0  0  0  0  0
   11.1563   -7.3749   -2.0154 H   0  0  0  0  0  0
   11.8852   -5.5602   -5.0906 H   0  0  0  0  0  0
   12.2758   -4.2545   -3.9600 H   0  0  0  0  0  0
   13.3980   -5.7988   -2.8571 H   0  0  0  0  0  0
   12.6574   -7.0761   -3.5972 H   0  0  0  0  0  0
  1  2  1  0  0  0
  2  3  1  0  0  0
  2  4  1  0  0  0
  2  5  1  0  0  0
  5  6  2  0  0  0
  5  7  1  0  0  0
  6  8  1  0  0  0
  6 38  1  0  0  0
  7  9  2  0  0  0
  7 39  1  0  0  0
  8 10  2  0  0  0
  8 40  1  0  0  0
  9 10  1  0  0  0
  9 41  1  0  0  0
 10 11  1  0  0  0
 11 12  2  0  0  0
 11 13  1  0  0  0
 12 14  1  0  0  0
 12 42  1  0  0  0
 13 15  2  0  0  0
 13 43  1  0  0  0
 14 16  1  0  0  0
 14 17  2  0  0  0
 15 16  1  0  0  0
 15 44  1  0  0  0
 16 18  2  0  0  0
 17 19  1  0  0  0
 17 45  1  0  0  0
 18 20  1  0  0  0
 18 21  1  0  0  0
 19 22  1  0  0  0
 19 21  2  0  0  0
 20 23  2  0  0  0
 20 24  1  0  0  0
 21 46  1  0  0  0
 22 25  2  0  0  0
 22 26  1  0  0  0
 23 27  1  0  0  0
 23 47  1  0  0  0
 24 28  2  0  0  0
 24 48  1  0  0  0
 27 29  2  0  0  0
 27 49  1  0  0  0
 28 29  1  0  0  0
 28 50  1  0  0  0
 29 30  1  0  0  0
 30 31  1  0  0  0
 30 32  1  0  0  0
 30 51  1  0  0  0
 31 33  1  0  0  0
 31 52  1  0  0  0
 31 53  1  0  0  0
 32 34  1  0  0  0
 32 54  1  0  0  0
 32 55  1  0  0  0
 33 35  1  0  0  0
 33 34  1  0  0  0
 33 56  1  0  0  0
 34 36  1  0  0  0
 34 57  1  0  0  0
 35 37  1  0  0  0
 35 58  1  0  0  0
 35 59  1  0  0  0
 36 37  1  0  0  0
 36 60  1  0  0  0
 36 61  1  0  0  0
 37 62  1  0  0  0
 37 63  1  0  0  0
M  CHG  2  26  -1  37   1
M  END
> <i_epik_Tot_Q>
0

> <i_epik_Tot_abs_Q>
2

> <i_lp_mmshare_version>
62121

> <i_m_Source_File_Index>
118

> <i_phase_Input_Structure_Number>
138

> <i_phase_Reference_Structure>
145

> <i_phase_Structure_Number>
138

> <Molecule Name>
192

> <Rotatable Bonds>
5

> <i_f3d_flags>
0

> <b_lp_Chiralities_Consistent>
1

> <r_canvas_IC50_human_P2Y14R,_nM>
32

> <r_canvas_pIC50>
7.49485002168009

> <r_epik_Charging_Adjusted_Penalty>
0.00148346305979931

> <r_epik_Ionization_Penalty>
  0.0008

> <r_epik_Ionization_Penalty_Charging>
  0.0008

> <r_epik_Ionization_Penalty_Neutral>
  0.0000

> <r_epik_State_Penalty>
  0.0007

> <r_lp_Energy>
78.385359

> <r_phase_Similarity_to_Reference>
0.930995851856052

> <s_canvas_CHEMBLID>
CHEMBL

> <s_canvas_Compound>
13

> <s_canvas_Paper>
Wen2023

> <s_epik_cmdline>
J2VwaWtfcHl0aG9uJywgJy1waCcsICc3LjAnLCAnLXRuJywgJzgnLCAnLW1hJywgJzUwMCcsICctaW1hZScsICc8aW5maWxlLm1hZT4nLCAnLW9tYWUnLCAnPG91dGZpbGUubWFlPic=

> <s_epik_input>
RkMoRikoRiljMVtjSF1bY0hdYyhbY0hdW2NIXTEpLWMoW2NIXTIpW2NIXVtjSF1jKGMyMyljKFtjSF1jKFtjSF0zKUMoPU8pW09IXSktYzRbY0hdW2NIXWMoW2NIXVtjSF00KVtDQEhdKFtDSDJdNSlbQ0gyXVtDQEhdKFtDQEBIXTU2KVtDSDJdW05IXVtDSDJdNg==

> <s_lp_Force_Field>
S-OPLS

> <s_lp_Variant>
192-1

> <s_m_Source_File>
database-aligned.sdf

> <s_m_Source_Path>
/data/matteo/P2Y14-antagonists-piperidineDerivatives-Wen2023/14052024-optimized-alignment

> <s_m_entry_id>
118

> <s_m_entry_name>
database-aligned.118

> <s_m_job_name>
align_ligands_1

> <s_phase_Alignment_Method>
flexible least-squares core

> <s_phase_Alignment_Reason>
stereochemistry change

> <s_phase_Core_SMARTS>
a1aaaaa1-a(a2)aaa(a23)a(aaa3)-a4aaa(aa4)A5AAA[A]AAA5

$$$$
193
                    3D
 Schrodinger Suite 2023-2.
 60 65  0  0  1  0            999 V2000
   -5.0261    1.4324    0.2838 F   0  0  0  0  0  0
   -4.4843    0.5364    1.1094 C   0  0  0  0  0  0
   -4.7261    0.9091    2.3654 F   0  0  0  0  0  0
   -5.0718   -0.6406    0.8904 F   0  0  0  0  0  0
   -2.9805    0.4435    0.8954 C   0  0  0  0  0  0
   -2.2992   -0.7723    1.1122 C   0  0  0  0  0  0
   -2.2454    1.5776    0.4941 C   0  0  0  0  0  0
   -0.9062   -0.8510    0.9207 C   0  0  0  0  0  0
   -0.8521    1.4946    0.3065 C   0  0  0  0  0  0
   -0.1610    0.2796    0.5158 C   0  0  0  0  0  0
    1.3001    0.1930    0.3226 C   0  0  0  0  0  0
    2.1524    1.2383    0.7416 C   0  0  0  0  0  0
    1.8847   -0.9390   -0.2850 C   0  0  0  0  0  0
    3.5501    1.1548    0.5712 C   0  0  0  0  0  0
    3.2777   -1.0307   -0.4622 C   0  0  0  0  0  0
    4.1320    0.0089   -0.0274 C   0  0  0  0  0  0
    4.3632    2.2211    1.0016 C   0  0  0  0  0  0
    5.5422   -0.0679   -0.1843 C   0  0  0  0  0  0
    5.7637    2.1649    0.8405 C   0  0  0  0  0  0
    6.2189   -1.2368   -0.7759 C   0  0  0  0  0  0
    6.3353    1.0178    0.2468 C   0  0  0  0  0  0
    6.6335    3.3065    1.2938 C   0  0  0  0  0  0
    6.1956   -2.4906   -0.1313 C   0  0  0  0  0  0
    6.9102   -1.1235   -1.9992 C   0  0  0  0  0  0
    7.8718    3.2234    1.1339 O   0  0  0  0  0  0
    6.0939    4.3069    1.8173 O   0  5  0  0  0  0
    6.8300   -3.6077   -0.7058 C   0  0  0  0  0  0
    7.5479   -2.2386   -2.5763 C   0  0  0  0  0  0
    7.5223   -3.4998   -1.9335 C   0  0  0  0  0  0
    8.1668   -4.7603   -2.5405 C   0  0  1  0  0  0
    9.1677   -4.5137   -3.6951 C   0  0  2  0  0  0
    9.1681   -5.4314   -1.5741 C   0  0  2  0  0  0
    9.5605   -5.8453   -4.3903 C   0  0  0  0  0  0
   10.0500   -4.3387   -2.3607 C   0  0  0  0  0  0
    9.5748   -6.8461   -2.0682 C   0  0  0  0  0  0
   10.1128   -6.8814   -3.4645 N   0  3  0  0  0  0
   -2.8412   -1.6517    1.4276 H   0  0  0  0  0  0
   -2.7464    2.5199    0.3282 H   0  0  0  0  0  0
   -0.4079   -1.7928    1.0982 H   0  0  0  0  0  0
   -0.3136    2.3772   -0.0068 H   0  0  0  0  0  0
    1.7301    2.1154    1.2106 H   0  0  0  0  0  0
    1.2615   -1.7515   -0.6286 H   0  0  0  0  0  0
    3.6723   -1.9146   -0.9396 H   0  0  0  0  0  0
    3.9024    3.0870    1.4554 H   0  0  0  0  0  0
    7.4069    0.9551    0.1218 H   0  0  0  0  0  0
    5.6745   -2.6008    0.8087 H   0  0  0  0  0  0
    6.9428   -0.1715   -2.5093 H   0  0  0  0  0  0
    6.7755   -4.5590   -0.1972 H   0  0  0  0  0  0
    8.0398   -2.0797   -3.5203 H   0  0  0  0  0  0
    7.3665   -5.4406   -2.8365 H   0  0  0  0  0  0
    9.0336   -3.6539   -4.3457 H   0  0  0  0  0  0
    9.0189   -5.2833   -0.5045 H   0  0  0  0  0  0
    8.6854   -6.2694   -4.8835 H   0  0  0  0  0  0
   10.2944   -5.6668   -5.1762 H   0  0  0  0  0  0
   11.0959   -4.6237   -2.4846 H   0  0  0  0  0  0
   10.0394   -3.3364   -1.9233 H   0  0  0  0  0  0
   10.3208   -7.2848   -1.4056 H   0  0  0  0  0  0
    8.7082   -7.5065   -2.0278 H   0  0  0  0  0  0
    9.9959   -7.8029   -3.8611 H   0  0  0  0  0  0
   11.1022   -6.6928   -3.3894 H   0  0  0  0  0  0
  1  2  1  0  0  0
  2  3  1  0  0  0
  2  4  1  0  0  0
  2  5  1  0  0  0
  5  6  2  0  0  0
  5  7  1  0  0  0
  6  8  1  0  0  0
  6 37  1  0  0  0
  7  9  2  0  0  0
  7 38  1  0  0  0
  8 10  2  0  0  0
  8 39  1  0  0  0
  9 10  1  0  0  0
  9 40  1  0  0  0
 10 11  1  0  0  0
 11 12  2  0  0  0
 11 13  1  0  0  0
 12 14  1  0  0  0
 12 41  1  0  0  0
 13 15  2  0  0  0
 13 42  1  0  0  0
 14 16  1  0  0  0
 14 17  2  0  0  0
 15 16  1  0  0  0
 15 43  1  0  0  0
 16 18  2  0  0  0
 17 19  1  0  0  0
 17 44  1  0  0  0
 18 20  1  0  0  0
 18 21  1  0  0  0
 19 22  1  0  0  0
 19 21  2  0  0  0
 20 23  2  0  0  0
 20 24  1  0  0  0
 21 45  1  0  0  0
 22 25  2  0  0  0
 22 26  1  0  0  0
 23 27  1  0  0  0
 23 46  1  0  0  0
 24 28  2  0  0  0
 24 47  1  0  0  0
 27 29  2  0  0  0
 27 48  1  0  0  0
 28 29  1  0  0  0
 28 49  1  0  0  0
 29 30  1  0  0  0
 30 31  1  0  0  0
 30 32  1  0  0  0
 30 50  1  0  0  0
 31 33  1  0  0  0
 31 34  1  0  0  0
 31 51  1  0  0  0
 32 35  1  0  0  0
 32 34  1  0  0  0
 32 52  1  0  0  0
 33 36  1  0  0  0
 33 53  1  0  0  0
 33 54  1  0  0  0
 34 55  1  0  0  0
 34 56  1  0  0  0
 35 36  1  0  0  0
 35 57  1  0  0  0
 35 58  1  0  0  0
 36 59  1  0  0  0
 36 60  1  0  0  0
M  CHG  2  26  -1  36   1
M  END
> <i_epik_Tot_Q>
0

> <i_epik_Tot_abs_Q>
2

> <i_lp_mmshare_version>
62121

> <i_m_Source_File_Index>
119

> <i_phase_Input_Structure_Number>
139

> <i_phase_Reference_Structure>
146

> <i_phase_Structure_Number>
139

> <Molecule Name>
193

> <Rotatable Bonds>
5

> <i_f3d_flags>
0

> <b_lp_Chiralities_Consistent>
1

> <r_canvas_IC50_human_P2Y14R,_nM>
524

> <r_canvas_pIC50>
6.28066871301627

> <r_epik_Charging_Adjusted_Penalty>
0.00152756560518959

> <r_epik_Ionization_Penalty>
  0.0008

> <r_epik_Ionization_Penalty_Charging>
  0.0008

> <r_epik_Ionization_Penalty_Neutral>
  0.0000

> <r_epik_State_Penalty>
  0.0007

> <r_lp_Energy>
82.996916

> <r_phase_Similarity_to_Reference>
0.881130769790847

> <s_canvas_CHEMBLID>
CHEMBL

> <s_canvas_Compound>
14

> <s_canvas_Paper>
Wen2023

> <s_epik_cmdline>
J2VwaWtfcHl0aG9uJywgJy1waCcsICc3LjAnLCAnLXRuJywgJzgnLCAnLW1hJywgJzUwMCcsICctaW1hZScsICc8aW5maWxlLm1hZT4nLCAnLW9tYWUnLCAnPG91dGZpbGUubWFlPic=

> <s_epik_input>
RkMoRikoRiljMVtjSF1bY0hdYyhbY0hdW2NIXTEpLWMoW2NIXTIpW2NIXVtjSF1jKGMyMyljKFtjSF1jKFtjSF0zKUMoPU8pW09IXSktYzRbY0hdW2NIXWMoW2NIXVtjSF00KVtDQEBIXShbQ0BIXTU2KVtDQEhdKFtDSDJdNilbQ0gyXVtOSF1bQ0gyXTU=

> <s_lp_Force_Field>
S-OPLS

> <s_lp_Variant>
193-1

> <s_m_Source_File>
database-aligned.sdf

> <s_m_Source_Path>
/data/matteo/P2Y14-antagonists-piperidineDerivatives-Wen2023/14052024-optimized-alignment

> <s_m_entry_id>
119

> <s_m_entry_name>
database-aligned.119

> <s_m_job_name>
align_ligands_1

> <s_phase_Alignment_Method>
snapped core

> <s_phase_Alignment_Reason>


> <s_phase_Core_SMARTS>
A12A[A]AA(A1)A2a3aaa(aa3)-a(aaa4)a(a45)aaa(a5)-a6aaaaa6

$$$$
194
                    3D
 Schrodinger Suite 2023-2.
 61 66  0  0  1  0            999 V2000
   -5.0261    1.4324    0.2838 F   0  0  0  0  0  0
   -4.4843    0.5364    1.1094 C   0  0  0  0  0  0
   -4.7261    0.9091    2.3654 F   0  0  0  0  0  0
   -5.0718   -0.6406    0.8904 F   0  0  0  0  0  0
   -2.9805    0.4435    0.8954 C   0  0  0  0  0  0
   -2.2992   -0.7723    1.1122 C   0  0  0  0  0  0
   -2.2454    1.5776    0.4941 C   0  0  0  0  0  0
   -0.9062   -0.8510    0.9207 C   0  0  0  0  0  0
   -0.8521    1.4946    0.3065 C   0  0  0  0  0  0
   -0.1610    0.2796    0.5158 C   0  0  0  0  0  0
    1.3001    0.1930    0.3226 C   0  0  0  0  0  0
    2.1524    1.2383    0.7416 C   0  0  0  0  0  0
    1.8847   -0.9390   -0.2850 C   0  0  0  0  0  0
    3.5501    1.1548    0.5712 C   0  0  0  0  0  0
    3.2777   -1.0307   -0.4622 C   0  0  0  0  0  0
    4.1320    0.0089   -0.0274 C   0  0  0  0  0  0
    4.3632    2.2211    1.0016 C   0  0  0  0  0  0
    5.5422   -0.0679   -0.1843 C   0  0  0  0  0  0
    5.7637    2.1649    0.8405 C   0  0  0  0  0  0
    6.2189   -1.2368   -0.7759 C   0  0  0  0  0  0
    6.3353    1.0178    0.2468 C   0  0  0  0  0  0
    6.6335    3.3065    1.2938 C   0  0  0  0  0  0
    6.9102   -1.1235   -1.9992 C   0  0  0  0  0  0
    6.1956   -2.4906   -0.1313 C   0  0  0  0  0  0
    7.8718    3.2234    1.1339 O   0  0  0  0  0  0
    6.0939    4.3069    1.8173 O   0  5  0  0  0  0
    7.5479   -2.2386   -2.5763 C   0  0  0  0  0  0
    6.8300   -3.6077   -0.7058 C   0  0  0  0  0  0
    7.5223   -3.4998   -1.9335 C   0  0  0  0  0  0
    8.1668   -4.7603   -2.5405 C   0  0  1  0  0  0
    7.1322   -5.6462   -2.9349 O   0  0  0  0  0  0
    9.1677   -4.5137   -3.6951 C   0  0  2  0  0  0
    9.1681   -5.4314   -1.5741 C   0  0  2  0  0  0
    9.5605   -5.8453   -4.3903 C   0  0  0  0  0  0
   10.0500   -4.3387   -2.3607 C   0  0  0  0  0  0
    9.5748   -6.8461   -2.0682 C   0  0  0  0  0  0
   10.1128   -6.8814   -3.4645 N   0  3  0  0  0  0
   -2.8416   -1.6514    1.4276 H   0  0  0  0  0  0
   -2.7469    2.5195    0.3278 H   0  0  0  0  0  0
   -0.4079   -1.7927    1.0985 H   0  0  0  0  0  0
   -0.3136    2.3771   -0.0071 H   0  0  0  0  0  0
    1.7299    2.1152    1.2107 H   0  0  0  0  0  0
    1.2613   -1.7513   -0.6289 H   0  0  0  0  0  0
    3.6723   -1.9143   -0.9400 H   0  0  0  0  0  0
    3.9029    3.0872    1.4555 H   0  0  0  0  0  0
    7.4070    0.9559    0.1223 H   0  0  0  0  0  0
    6.9423   -0.1716   -2.5094 H   0  0  0  0  0  0
    5.6747   -2.6006    0.8089 H   0  0  0  0  0  0
    8.0389   -2.0799   -3.5208 H   0  0  0  0  0  0
    6.7762   -4.5584   -0.1958 H   0  0  0  0  0  0
    6.6030   -5.8461   -2.1777 H   0  0  0  0  0  0
    9.0398   -3.6511   -4.3433 H   0  0  0  0  0  0
    9.0244   -5.2795   -0.5042 H   0  0  0  0  0  0
    8.6971   -6.2702   -4.9030 H   0  0  0  0  0  0
   10.3040   -5.6628   -5.1662 H   0  0  0  0  0  0
   11.0959   -4.6233   -2.4844 H   0  0  0  0  0  0
   10.0394   -3.3364   -1.9232 H   0  0  0  0  0  0
   10.3289   -7.2762   -1.4090 H   0  0  0  0  0  0
    8.7183   -7.5188   -2.0170 H   0  0  0  0  0  0
    9.9944   -7.8027   -3.8610 H   0  0  0  0  0  0
   11.1024   -6.6942   -3.3901 H   0  0  0  0  0  0
  1  2  1  0  0  0
  2  3  1  0  0  0
  2  4  1  0  0  0
  2  5  1  0  0  0
  5  6  2  0  0  0
  5  7  1  0  0  0
  6  8  1  0  0  0
  6 38  1  0  0  0
  7  9  2  0  0  0
  7 39  1  0  0  0
  8 10  2  0  0  0
  8 40  1  0  0  0
  9 10  1  0  0  0
  9 41  1  0  0  0
 10 11  1  0  0  0
 11 12  2  0  0  0
 11 13  1  0  0  0
 12 14  1  0  0  0
 12 42  1  0  0  0
 13 15  2  0  0  0
 13 43  1  0  0  0
 14 16  1  0  0  0
 14 17  2  0  0  0
 15 16  1  0  0  0
 15 44  1  0  0  0
 16 18  2  0  0  0
 17 19  1  0  0  0
 17 45  1  0  0  0
 18 20  1  0  0  0
 18 21  1  0  0  0
 19 22  1  0  0  0
 19 21  2  0  0  0
 20 23  2  0  0  0
 20 24  1  0  0  0
 21 46  1  0  0  0
 22 25  2  0  0  0
 22 26  1  0  0  0
 23 27  1  0  0  0
 23 47  1  0  0  0
 24 28  2  0  0  0
 24 48  1  0  0  0
 27 29  2  0  0  0
 27 49  1  0  0  0
 28 29  1  0  0  0
 28 50  1  0  0  0
 29 30  1  0  0  0
 30 31  1  0  0  0
 30 32  1  0  0  0
 30 33  1  0  0  0
 31 51  1  0  0  0
 32 34  1  0  0  0
 32 35  1  0  0  0
 32 52  1  0  0  0
 33 36  1  0  0  0
 33 35  1  0  0  0
 33 53  1  0  0  0
 34 37  1  0  0  0
 34 54  1  0  0  0
 34 55  1  0  0  0
 35 56  1  0  0  0
 35 57  1  0  0  0
 36 37  1  0  0  0
 36 58  1  0  0  0
 36 59  1  0  0  0
 37 60  1  0  0  0
 37 61  1  0  0  0
M  CHG  2  26  -1  37   1
M  END
> <i_epik_Tot_Q>
0

> <i_epik_Tot_abs_Q>
2

> <i_lp_mmshare_version>
62121

> <i_m_Source_File_Index>
120

> <i_phase_Input_Structure_Number>
140

> <i_phase_Reference_Structure>
146

> <i_phase_Structure_Number>
140

> <Molecule Name>
194

> <Rotatable Bonds>
5

> <i_f3d_flags>
0

> <b_lp_Chiralities_Consistent>
1

> <r_canvas_IC50_human_P2Y14R,_nM>
5.92

> <r_canvas_pIC50>
8.22767829327708

> <r_epik_Charging_Adjusted_Penalty>
0.0017303426536046

> <r_epik_Ionization_Penalty>
  0.0010

> <r_epik_Ionization_Penalty_Charging>
  0.0010

> <r_epik_Ionization_Penalty_Neutral>
  0.0000

> <r_epik_State_Penalty>
  0.0007

> <r_lp_Energy>
84.036976

> <r_phase_Similarity_to_Reference>
0.889957201944032

> <s_canvas_CHEMBLID>
CHEMBL

> <s_canvas_Compound>
15

> <s_canvas_Paper>
Wen2023

> <s_epik_cmdline>
J2VwaWtfcHl0aG9uJywgJy1waCcsICc3LjAnLCAnLXRuJywgJzgnLCAnLW1hJywgJzUwMCcsICctaW1hZScsICc8aW5maWxlLm1hZT4nLCAnLW9tYWUnLCAnPG91dGZpbGUubWFlPic=

> <s_epik_input>
RkMoRikoRiljMVtjSF1bY0hdYyhbY0hdW2NIXTEpLWMoW2NIXTIpW2NIXVtjSF1jKGMyMyljKFtjSF1jKFtjSF0zKUMoPU8pW09IXSktYzRbY0hdW2NIXWMoW2NIXVtjSF00KVtDQEBdKFtPSF0pKFtDQEhdNTYpW0NASF0oW0NIMl02KVtDSDJdW05IXVtDSDJdNQ==

> <s_lp_Force_Field>
S-OPLS

> <s_lp_Variant>
194-1

> <s_m_Source_File>
database-aligned.sdf

> <s_m_Source_Path>
/data/matteo/P2Y14-antagonists-piperidineDerivatives-Wen2023/14052024-optimized-alignment

> <s_m_entry_id>
120

> <s_m_entry_name>
database-aligned.120

> <s_m_job_name>
align_ligands_1

> <s_phase_Alignment_Method>
snapped core

> <s_phase_Alignment_Reason>


> <s_phase_Core_SMARTS>
A12A[A]AA(A1)A2a3aaa(aa3)-a(aaa4)a(a45)aaa(a5)-a6aaaaa6

$$$$
195
                    3D
 Schrodinger Suite 2023-2.
 62 66  0  0  1  0            999 V2000
   -4.9691    1.7701    0.3867 F   0  0  0  0  0  0
   -4.4777    0.8133    1.1752 C   0  0  0  0  0  0
   -4.7166    1.1391    2.4447 F   0  0  0  0  0  0
   -5.1158   -0.3239    0.8964 F   0  0  0  0  0  0
   -2.9780    0.6582    0.9687 C   0  0  0  0  0  0
   -2.3552   -0.5932    1.1582 C   0  0  0  0  0  0
   -2.1898    1.7642    0.5916 C   0  0  0  0  0  0
   -0.9677   -0.7342    0.9619 C   0  0  0  0  0  0
   -0.8025    1.6186    0.3984 C   0  0  0  0  0  0
   -0.1691    0.3675    0.5783 C   0  0  0  0  0  0
    1.2857    0.2149    0.3701 C   0  0  0  0  0  0
    2.1874    1.2272    0.7664 C   0  0  0  0  0  0
    1.8148   -0.9455   -0.2364 C   0  0  0  0  0  0
    3.5762    1.0907    0.5627 C   0  0  0  0  0  0
    3.1994   -1.0924   -0.4429 C   0  0  0  0  0  0
    4.1002   -0.0788   -0.0432 C   0  0  0  0  0  0
    4.4378    2.1310    0.9617 C   0  0  0  0  0  0
    5.5005   -0.2028   -0.2446 C   0  0  0  0  0  0
    5.8301    2.0257    0.7589 C   0  0  0  0  0  0
    6.1215   -1.3876   -0.8627 C   0  0  0  0  0  0
    6.3435    0.8561    0.1569 C   0  0  0  0  0  0
    6.7521    3.1388    1.1798 C   0  0  0  0  0  0
    6.1536   -2.6266   -0.1911 C   0  0  0  0  0  0
    6.7119   -1.2993   -2.1389 C   0  0  0  0  0  0
    7.9814    3.0114    0.9842 O   0  0  0  0  0  0
    6.2638    4.1599    1.7132 O   0  5  0  0  0  0
    6.7664   -3.7493   -0.7796 C   0  0  0  0  0  0
    7.3240   -2.4200   -2.7312 C   0  0  0  0  0  0
    7.3793   -3.6613   -2.0521 C   0  0  0  0  0  0
    8.0335   -4.9009   -2.6887 C   0  0  2  0  0  0
    8.7470   -5.7862   -1.6125 C   0  0  0  0  0  0
    9.0395   -4.5319   -3.8309 C   0  0  0  0  0  0
    9.8378   -6.7371   -2.1658 C   0  0  0  0  0  0
   10.0937   -5.6208   -4.1500 C   0  0  0  0  0  0
    9.3151   -7.7244   -3.2227 N   0  3  0  0  0  0
    9.4851   -6.9732   -4.5561 C   0  0  0  0  0  0
   -2.9383   -1.4522    1.4558 H   0  0  0  0  0  0
   -2.6453    2.7327    0.4472 H   0  0  0  0  0  0
   -0.5161   -1.7029    1.1176 H   0  0  0  0  0  0
   -0.2248    2.4814    0.1006 H   0  0  0  0  0  0
    1.8106    2.1241    1.2367 H   0  0  0  0  0  0
    1.1547   -1.7362   -0.5614 H   0  0  0  0  0  0
    3.5526   -1.9947   -0.9189 H   0  0  0  0  0  0
    4.0207    3.0158    1.4213 H   0  0  0  0  0  0
    7.4077    0.7567   -0.0028 H   0  0  0  0  0  0
    5.7029   -2.7180    0.7865 H   0  0  0  0  0  0
    6.6936   -0.3605   -2.6736 H   0  0  0  0  0  0
    6.7552   -4.6799   -0.2333 H   0  0  0  0  0  0
    7.7456   -2.2989   -3.7169 H   0  0  0  0  0  0
    7.2357   -5.4977   -3.1325 H   0  0  0  0  0  0
    9.2339   -5.1425   -0.8784 H   0  0  0  0  0  0
    7.9993   -6.3612   -1.0645 H   0  0  0  0  0  0
    8.4833   -4.2639   -4.7307 H   0  0  0  0  0  0
    9.6069   -3.6453   -3.5452 H   0  0  0  0  0  0
   10.8898   -6.4606   -2.0679 H   0  0  0  0  0  0
    9.8937   -7.4455   -1.3386 H   0  0  0  0  0  0
   10.3991   -5.2701   -5.1369 H   0  0  0  0  0  0
   11.1058   -5.5141   -3.7539 H   0  0  0  0  0  0
    9.8777   -8.5632   -3.2252 H   0  0  0  0  0  0
    8.5272   -6.8639   -5.0657 H   0  0  0  0  0  0
   10.1585   -7.5341   -5.2050 H   0  0  0  0  0  0
    8.3449   -7.9482   -3.0534 H   0  0  0  0  0  0
  1  2  1  0  0  0
  2  3  1  0  0  0
  2  4  1  0  0  0
  2  5  1  0  0  0
  5  6  2  0  0  0
  5  7  1  0  0  0
  6  8  1  0  0  0
  6 37  1  0  0  0
  7  9  2  0  0  0
  7 38  1  0  0  0
  8 10  2  0  0  0
  8 39  1  0  0  0
  9 10  1  0  0  0
  9 40  1  0  0  0
 10 11  1  0  0  0
 11 12  2  0  0  0
 11 13  1  0  0  0
 12 14  1  0  0  0
 12 41  1  0  0  0
 13 15  2  0  0  0
 13 42  1  0  0  0
 14 16  1  0  0  0
 14 17  2  0  0  0
 15 16  1  0  0  0
 15 43  1  0  0  0
 16 18  2  0  0  0
 17 19  1  0  0  0
 17 44  1  0  0  0
 18 20  1  0  0  0
 18 21  1  0  0  0
 19 22  1  0  0  0
 19 21  2  0  0  0
 20 23  2  0  0  0
 20 24  1  0  0  0
 21 45  1  0  0  0
 22 25  2  0  0  0
 22 26  1  0  0  0
 23 27  1  0  0  0
 23 46  1  0  0  0
 24 28  2  0  0  0
 24 47  1  0  0  0
 27 29  2  0  0  0
 27 48  1  0  0  0
 28 29  1  0  0  0
 28 49  1  0  0  0
 29 30  1  0  0  0
 30 31  1  0  0  0
 30 32  1  0  0  0
 30 50  1  0  0  0
 31 33  1  0  0  0
 31 51  1  0  0  0
 31 52  1  0  0  0
 32 34  1  0  0  0
 32 53  1  0  0  0
 32 54  1  0  0  0
 33 35  1  0  0  0
 33 55  1  0  0  0
 33 56  1  0  0  0
 34 36  1  0  0  0
 34 57  1  0  0  0
 34 58  1  0  0  0
 35 36  1  0  0  0
 35 59  1  0  0  0
 35 62  1  0  0  0
 36 60  1  0  0  0
 36 61  1  0  0  0
M  CHG  2  26  -1  35   1
M  END
> <i_epik_Tot_Q>
0

> <i_epik_Tot_abs_Q>
2

> <i_lp_mmshare_version>
62121

> <i_m_Source_File_Index>
121

> <i_phase_Input_Structure_Number>
141

> <i_phase_Reference_Structure>
115

> <i_phase_Structure_Number>
141

> <Molecule Name>
195

> <Rotatable Bonds>
5

> <i_f3d_flags>
0

> <b_lp_Chiralities_Consistent>
1

> <r_canvas_IC50_human_P2Y14R,_nM>
9.58

> <r_canvas_pIC50>
8.01863449092146

> <r_epik_Charging_Adjusted_Penalty>
0.00116190763530423

> <r_epik_Ionization_Penalty>
  0.0012

> <r_epik_Ionization_Penalty_Charging>
  0.0012

> <r_epik_Ionization_Penalty_Neutral>
  0.0000

> <r_epik_State_Penalty>
  0.0000

> <r_lp_Energy>
68.374146

> <r_lp_tautomer_probability>
1

> <r_phase_Similarity_to_Reference>
0.953928750864891

> <s_canvas_CHEMBLID>
CHEMBL

> <s_canvas_Compound>
16

> <s_canvas_Paper>
Wen2023

> <s_epik_cmdline>
J2VwaWtfcHl0aG9uJywgJy1waCcsICc3LjAnLCAnLXRuJywgJzgnLCAnLW1hJywgJzUwMCcsICctaW1hZScsICc8aW5maWxlLm1hZT4nLCAnLW9tYWUnLCAnPG91dGZpbGUubWFlPic=

> <s_epik_input>
RkMoRikoRiljMVtjSF1bY0hdYyhbY0hdW2NIXTEpLWMoW2NIXTIpW2NIXVtjSF1jKGMyMyljKFtjSF1jKFtjSF0zKUMoPU8pW09IXSktYzRbY0hdW2NIXWMoW2NIXVtjSF00KVtDQEBIXTVbQ0gyXVtDSDJdW05IXVtDSDJdW0NIMl1bQ0gyXTU=

> <s_lp_Force_Field>
S-OPLS

> <s_lp_Variant>
195-1

> <s_m_Source_File>
database-aligned.sdf

> <s_m_Source_Path>
/data/matteo/P2Y14-antagonists-piperidineDerivatives-Wen2023/14052024-optimized-alignment

> <s_m_entry_id>
121

> <s_m_entry_name>
database-aligned.121

> <s_m_job_name>
align_ligands_1

> <s_phase_Alignment_Method>
snapped core

> <s_phase_Alignment_Reason>


> <s_phase_Core_SMARTS>
a1aaaaa1-a(a2)aaa(a23)a(aaa3)-a4aaa(aa4)A5AAA[A]AA5

$$$$
196
                    3D
 Schrodinger Suite 2023-2.
 60 64  0  0  1  0            999 V2000
   -5.0261    1.4324    0.2838 F   0  0  0  0  0  0
   -4.4843    0.5364    1.1094 C   0  0  0  0  0  0
   -4.7261    0.9091    2.3654 F   0  0  0  0  0  0
   -5.0718   -0.6406    0.8904 F   0  0  0  0  0  0
   -2.9805    0.4435    0.8954 C   0  0  0  0  0  0
   -2.2992   -0.7723    1.1122 C   0  0  0  0  0  0
   -2.2454    1.5776    0.4941 C   0  0  0  0  0  0
   -0.9062   -0.8510    0.9207 C   0  0  0  0  0  0
   -0.8521    1.4946    0.3065 C   0  0  0  0  0  0
   -0.1610    0.2796    0.5158 C   0  0  0  0  0  0
    1.3001    0.1930    0.3226 C   0  0  0  0  0  0
    2.1524    1.2383    0.7416 C   0  0  0  0  0  0
    1.8847   -0.9390   -0.2850 C   0  0  0  0  0  0
    3.5501    1.1548    0.5712 C   0  0  0  0  0  0
    3.2777   -1.0307   -0.4622 C   0  0  0  0  0  0
    4.1320    0.0089   -0.0274 C   0  0  0  0  0  0
    4.3632    2.2211    1.0016 C   0  0  0  0  0  0
    5.5422   -0.0679   -0.1843 C   0  0  0  0  0  0
    5.7637    2.1649    0.8405 C   0  0  0  0  0  0
    6.2189   -1.2368   -0.7759 C   0  0  0  0  0  0
    6.3353    1.0178    0.2468 C   0  0  0  0  0  0
    6.6335    3.3065    1.2938 C   0  0  0  0  0  0
    6.9102   -1.1235   -1.9992 C   0  0  0  0  0  0
    6.1956   -2.4906   -0.1313 C   0  0  0  0  0  0
    7.8718    3.2234    1.1339 O   0  0  0  0  0  0
    6.0939    4.3069    1.8173 O   0  5  0  0  0  0
    7.5479   -2.2386   -2.5763 C   0  0  0  0  0  0
    6.8300   -3.6077   -0.7058 C   0  0  0  0  0  0
    7.5223   -3.4998   -1.9335 C   0  0  0  0  0  0
    8.2092   -4.6606   -2.5322 C   0  0  0  0  0  0
    8.9307   -5.4763   -1.7375 C   0  0  0  0  0  0
    7.9595   -4.9920   -3.9980 C   0  0  0  0  0  0
    9.6503   -6.7457   -2.1486 C   0  0  0  0  0  0
    9.2361   -5.1303   -4.8417 C   0  0  0  0  0  0
   10.6244   -6.5597   -3.3216 C   0  0  0  0  0  0
    9.9374   -6.4104   -4.6195 N   0  3  0  0  0  0
   -2.8413   -1.6510    1.4291 H   0  0  0  0  0  0
   -2.7467    2.5198    0.3289 H   0  0  0  0  0  0
   -0.4079   -1.7927    1.0987 H   0  0  0  0  0  0
   -0.3137    2.3771   -0.0071 H   0  0  0  0  0  0
    1.7302    2.1159    1.2098 H   0  0  0  0  0  0
    1.2614   -1.7512   -0.6292 H   0  0  0  0  0  0
    3.6720   -1.9142   -0.9403 H   0  0  0  0  0  0
    3.9021    3.0868    1.4553 H   0  0  0  0  0  0
    7.4068    0.9553    0.1214 H   0  0  0  0  0  0
    6.9466   -0.1706   -2.5072 H   0  0  0  0  0  0
    5.6766   -2.6003    0.8099 H   0  0  0  0  0  0
    8.0726   -2.1169   -3.5125 H   0  0  0  0  0  0
    6.7834   -4.5556   -0.1899 H   0  0  0  0  0  0
    9.0334   -5.2282   -0.6906 H   0  0  0  0  0  0
    7.3441   -5.8902   -4.0641 H   0  0  0  0  0  0
    7.3534   -4.1993   -4.4364 H   0  0  0  0  0  0
   10.2102   -7.0939   -1.2802 H   0  0  0  0  0  0
    8.9172   -7.5226   -2.3698 H   0  0  0  0  0  0
    8.9626   -5.0979   -5.8966 H   0  0  0  0  0  0
    9.9122   -4.2914   -4.6712 H   0  0  0  0  0  0
   11.2919   -5.7144   -3.1480 H   0  0  0  0  0  0
   11.2577   -7.4441   -3.3943 H   0  0  0  0  0  0
    9.2800   -7.1689   -4.7307 H   0  0  0  0  0  0
   10.6410   -6.4927   -5.3395 H   0  0  0  0  0  0
  1  2  1  0  0  0
  2  3  1  0  0  0
  2  4  1  0  0  0
  2  5  1  0  0  0
  5  6  2  0  0  0
  5  7  1  0  0  0
  6  8  1  0  0  0
  6 37  1  0  0  0
  7  9  2  0  0  0
  7 38  1  0  0  0
  8 10  2  0  0  0
  8 39  1  0  0  0
  9 10  1  0  0  0
  9 40  1  0  0  0
 10 11  1  0  0  0
 11 12  2  0  0  0
 11 13  1  0  0  0
 12 14  1  0  0  0
 12 41  1  0  0  0
 13 15  2  0  0  0
 13 42  1  0  0  0
 14 16  1  0  0  0
 14 17  2  0  0  0
 15 16  1  0  0  0
 15 43  1  0  0  0
 16 18  2  0  0  0
 17 19  1  0  0  0
 17 44  1  0  0  0
 18 20  1  0  0  0
 18 21  1  0  0  0
 19 22  1  0  0  0
 19 21  2  0  0  0
 20 23  2  0  0  0
 20 24  1  0  0  0
 21 45  1  0  0  0
 22 25  2  0  0  0
 22 26  1  0  0  0
 23 27  1  0  0  0
 23 46  1  0  0  0
 24 28  2  0  0  0
 24 47  1  0  0  0
 27 29  2  0  0  0
 27 48  1  0  0  0
 28 29  1  0  0  0
 28 49  1  0  0  0
 29 30  1  0  0  0
 30 31  2  0  0  0
 30 32  1  0  0  0
 31 33  1  0  0  0
 31 50  1  0  0  0
 32 34  1  0  0  0
 32 51  1  0  0  0
 32 52  1  0  0  0
 33 35  1  0  0  0
 33 53  1  0  0  0
 33 54  1  0  0  0
 34 36  1  0  0  0
 34 55  1  0  0  0
 34 56  1  0  0  0
 35 36  1  0  0  0
 35 57  1  0  0  0
 35 58  1  0  0  0
 36 59  1  0  0  0
 36 60  1  0  0  0
M  CHG  2  26  -1  36   1
M  END
> <i_epik_Tot_Q>
0

> <i_epik_Tot_abs_Q>
2

> <i_lp_mmshare_version>
62121

> <i_m_Source_File_Index>
122

> <i_phase_Input_Structure_Number>
142

> <i_phase_Reference_Structure>
116

> <i_phase_Structure_Number>
142

> <Molecule Name>
196

> <Rotatable Bonds>
5

> <i_f3d_flags>
0

> <b_lp_Chiralities_Consistent>
1

> <r_canvas_IC50_human_P2Y14R,_nM>
11.9

> <r_canvas_pIC50>
7.92445303860747

> <r_epik_Charging_Adjusted_Penalty>
0.0023779489572242

> <r_epik_Ionization_Penalty>
  0.0024

> <r_epik_Ionization_Penalty_Charging>
  0.0024

> <r_epik_Ionization_Penalty_Neutral>
  0.0000

> <r_epik_State_Penalty>
  0.0000

> <r_lp_Energy>
66.40103

> <r_lp_tautomer_probability>
1

> <r_phase_Similarity_to_Reference>
0.76238729047756

> <s_canvas_CHEMBLID>
CHEMBL

> <s_canvas_Compound>
17

> <s_canvas_Paper>
Wen2023

> <s_epik_cmdline>
J2VwaWtfcHl0aG9uJywgJy1waCcsICc3LjAnLCAnLXRuJywgJzgnLCAnLW1hJywgJzUwMCcsICctaW1hZScsICc8aW5maWxlLm1hZT4nLCAnLW9tYWUnLCAnPG91dGZpbGUubWFlPic=

> <s_epik_input>
RkMoRikoRiljMVtjSF1bY0hdYyhbY0hdW2NIXTEpLWMoW2NIXTIpW2NIXVtjSF1jKGMyMyljKFtjSF1jKFtjSF0zKUMoPU8pW09IXSktYzRbY0hdW2NIXWMoW2NIXVtjSF00KUM1PVtDSF1bQ0gyXVtDSDJdW05IXVtDSDJdW0NIMl01

> <s_lp_Force_Field>
S-OPLS

> <s_lp_Variant>
196-1

> <s_m_Source_File>
database-aligned.sdf

> <s_m_Source_Path>
/data/matteo/P2Y14-antagonists-piperidineDerivatives-Wen2023/14052024-optimized-alignment

> <s_m_entry_id>
122

> <s_m_entry_name>
database-aligned.122

> <s_m_job_name>
align_ligands_1

> <s_phase_Alignment_Method>
snapped core

> <s_phase_Alignment_Reason>


> <s_phase_Core_SMARTS>
a1aaaaa1-a(a2)aaa(a23)a(aaa3)-a4aaaaa4

$$$$
197
                    3D
 Schrodinger Suite 2023-2.
 65 69  0  0  1  0            999 V2000
   -4.9800    1.5534    0.2615 F   0  0  0  0  0  0
   -4.4729    0.5937    1.0363 C   0  0  0  0  0  0
   -4.7404    0.8837    2.3088 F   0  0  0  0  0  0
   -5.0729   -0.5551    0.7224 F   0  0  0  0  0  0
   -2.9663    0.4867    0.8505 C   0  0  0  0  0  0
   -2.3101   -0.7501    1.0223 C   0  0  0  0  0  0
   -2.2056    1.6222    0.5067 C   0  0  0  0  0  0
   -0.9157   -0.8454    0.8477 C   0  0  0  0  0  0
   -0.8117    1.5217    0.3337 C   0  0  0  0  0  0
   -0.1437    0.2871    0.5015 C   0  0  0  0  0  0
    1.3197    0.1839    0.3236 C   0  0  0  0  0  0
    2.1789    1.2193    0.7532 C   0  0  0  0  0  0
    1.9005   -0.9511   -0.2830 C   0  0  0  0  0  0
    3.5764    1.1267    0.5887 C   0  0  0  0  0  0
    3.2944   -1.0545   -0.4497 C   0  0  0  0  0  0
    4.1541   -0.0224   -0.0082 C   0  0  0  0  0  0
    4.3925    2.1899    1.0212 C   0  0  0  0  0  0
    5.5648   -0.1070   -0.1577 C   0  0  0  0  0  0
    5.7929    2.1278    0.8630 C   0  0  0  0  0  0
    6.2478   -1.2777   -0.7395 C   0  0  0  0  0  0
    6.3606    0.9763    0.2750 C   0  0  0  0  0  0
    6.6672    3.2651    1.3195 C   0  0  0  0  0  0
    6.1945   -2.5387   -0.1107 C   0  0  0  0  0  0
    6.9969   -1.1527   -1.9271 C   0  0  0  0  0  0
    7.9054    3.1757    1.1633 O   0  0  0  0  0  0
    6.1314    4.2677    1.8423 O   0  5  0  0  0  0
    6.8665   -3.6467   -0.6596 C   0  0  0  0  0  0
    7.6741   -2.2581   -2.4769 C   0  0  0  0  0  0
    7.6251   -3.5257   -1.8474 C   0  0  0  0  0  0
    8.3522   -4.7662   -2.3997 C   0  0  0  0  0  0
    9.3696   -5.2842   -1.3455 C   0  0  0  0  0  0
    8.9680   -4.5628   -3.8200 C   0  0  0  0  0  0
   10.2910   -6.4352   -1.8076 C   0  0  0  0  0  0
   10.2868   -3.7615   -3.9185 C   0  0  0  0  0  0
   11.7866   -6.0725   -1.8391 C   0  0  0  0  0  0
   11.5802   -4.6018   -3.8695 C   0  0  0  0  0  0
   12.0843   -4.7782   -2.4927 N   0  3  0  0  0  0
   -2.8720   -1.6321    1.2924 H   0  0  0  0  0  0
   -2.6873    2.5797    0.3740 H   0  0  0  0  0  0
   -0.4381   -1.8033    0.9928 H   0  0  0  0  0  0
   -0.2557    2.4074    0.0633 H   0  0  0  0  0  0
    1.7625    2.0991    1.2222 H   0  0  0  0  0  0
    1.2744   -1.7571   -0.6361 H   0  0  0  0  0  0
    3.6857   -1.9397   -0.9273 H   0  0  0  0  0  0
    3.9343    3.0585    1.4723 H   0  0  0  0  0  0
    7.4326    0.9087    0.1560 H   0  0  0  0  0  0
    5.6316   -2.6589    0.8036 H   0  0  0  0  0  0
    7.0560   -0.1952   -2.4242 H   0  0  0  0  0  0
    6.7951   -4.5994   -0.1563 H   0  0  0  0  0  0
    8.2248   -2.0974   -3.3893 H   0  0  0  0  0  0
    7.5817   -5.5305   -2.5109 H   0  0  0  0  0  0
    9.9679   -4.4487   -0.9806 H   0  0  0  0  0  0
    8.8230   -5.6299   -0.4679 H   0  0  0  0  0  0
    9.1171   -5.5306   -4.2977 H   0  0  0  0  0  0
    8.2159   -4.0923   -4.4543 H   0  0  0  0  0  0
   10.1668   -7.2761   -1.1244 H   0  0  0  0  0  0
    9.9807   -6.8311   -2.7727 H   0  0  0  0  0  0
   10.2751   -3.2634   -4.8887 H   0  0  0  0  0  0
   10.3260   -2.9561   -3.1849 H   0  0  0  0  0  0
   12.1688   -6.0174   -0.8195 H   0  0  0  0  0  0
   12.3481   -6.8634   -2.3376 H   0  0  0  0  0  0
   11.4817   -5.5541   -4.3924 H   0  0  0  0  0  0
   12.3560   -4.0496   -4.4004 H   0  0  0  0  0  0
   11.7143   -4.0303   -1.9233 H   0  0  0  0  0  0
   13.0897   -4.6853   -2.5198 H   0  0  0  0  0  0
  1  2  1  0  0  0
  2  3  1  0  0  0
  2  4  1  0  0  0
  2  5  1  0  0  0
  5  6  2  0  0  0
  5  7  1  0  0  0
  6  8  1  0  0  0
  6 38  1  0  0  0
  7  9  2  0  0  0
  7 39  1  0  0  0
  8 10  2  0  0  0
  8 40  1  0  0  0
  9 10  1  0  0  0
  9 41  1  0  0  0
 10 11  1  0  0  0
 11 12  2  0  0  0
 11 13  1  0  0  0
 12 14  1  0  0  0
 12 42  1  0  0  0
 13 15  2  0  0  0
 13 43  1  0  0  0
 14 16  1  0  0  0
 14 17  2  0  0  0
 15 16  1  0  0  0
 15 44  1  0  0  0
 16 18  2  0  0  0
 17 19  1  0  0  0
 17 45  1  0  0  0
 18 20  1  0  0  0
 18 21  1  0  0  0
 19 22  1  0  0  0
 19 21  2  0  0  0
 20 23  2  0  0  0
 20 24  1  0  0  0
 21 46  1  0  0  0
 22 25  2  0  0  0
 22 26  1  0  0  0
 23 27  1  0  0  0
 23 47  1  0  0  0
 24 28  2  0  0  0
 24 48  1  0  0  0
 27 29  2  0  0  0
 27 49  1  0  0  0
 28 29  1  0  0  0
 28 50  1  0  0  0
 29 30  1  0  0  0
 30 31  1  0  0  0
 30 32  1  0  0  0
 30 51  1  0  0  0
 31 33  1  0  0  0
 31 52  1  0  0  0
 31 53  1  0  0  0
 32 34  1  0  0  0
 32 54  1  0  0  0
 32 55  1  0  0  0
 33 35  1  0  0  0
 33 56  1  0  0  0
 33 57  1  0  0  0
 34 36  1  0  0  0
 34 58  1  0  0  0
 34 59  1  0  0  0
 35 37  1  0  0  0
 35 60  1  0  0  0
 35 61  1  0  0  0
 36 37  1  0  0  0
 36 62  1  0  0  0
 36 63  1  0  0  0
 37 64  1  0  0  0
 37 65  1  0  0  0
M  CHG  2  26  -1  37   1
M  END
> <i_epik_Tot_Q>
0

> <i_epik_Tot_abs_Q>
2

> <i_lp_mmshare_version>
62121

> <i_m_Source_File_Index>
123

> <i_phase_Input_Structure_Number>
143

> <i_phase_Reference_Structure>
145

> <i_phase_Structure_Number>
143

> <Molecule Name>
197

> <Rotatable Bonds>
5

> <i_f3d_flags>
0

> <b_lp_Chiralities_Consistent>
1

> <r_canvas_IC50_human_P2Y14R,_nM>
18.5

> <r_canvas_pIC50>
7.73282827159699

> <r_epik_Charging_Adjusted_Penalty>
0.00109145029414139

> <r_epik_Ionization_Penalty>
  0.0011

> <r_epik_Ionization_Penalty_Charging>
  0.0011

> <r_epik_Ionization_Penalty_Neutral>
  0.0000

> <r_epik_State_Penalty>
  0.0000

> <r_lp_Energy>
76.503134

> <r_lp_tautomer_probability>
1

> <r_phase_Similarity_to_Reference>
0.987604806259022

> <s_canvas_CHEMBLID>
CHEMBL

> <s_canvas_Compound>
18

> <s_canvas_Paper>
Wen2023

> <s_epik_cmdline>
J2VwaWtfcHl0aG9uJywgJy1waCcsICc3LjAnLCAnLXRuJywgJzgnLCAnLW1hJywgJzUwMCcsICctaW1hZScsICc8aW5maWxlLm1hZT4nLCAnLW9tYWUnLCAnPG91dGZpbGUubWFlPic=

> <s_epik_input>
RkMoRikoRiljMVtjSF1bY0hdYyhbY0hdW2NIXTEpLWMoW2NIXTIpW2NIXVtjSF1jKGMyMyljKFtjSF1jKFtjSF0zKUMoPU8pW09IXSktYzRbY0hdW2NIXWMoW2NIXVtjSF00KVtDSF01W0NIMl1bQ0gyXVtDSDJdW05IXVtDSDJdW0NIMl1bQ0gyXTU=

> <s_lp_Force_Field>
S-OPLS

> <s_lp_Variant>
197-1

> <s_m_Source_File>
database-aligned.sdf

> <s_m_Source_Path>
/data/matteo/P2Y14-antagonists-piperidineDerivatives-Wen2023/14052024-optimized-alignment

> <s_m_entry_id>
123

> <s_m_entry_name>
database-aligned.123

> <s_m_job_name>
align_ligands_1

> <s_phase_Alignment_Method>
snapped core

> <s_phase_Alignment_Reason>


> <s_phase_Core_SMARTS>
a1aaaaa1-a(a2)aaa(a23)a(aaa3)-a4aaa(aa4)A5AAA[A]AAA5

$$$$
198
                    3D
 Schrodinger Suite 2023-2.
 63 67  0  0  1  0            999 V2000
   -5.0261    1.4324    0.2838 F   0  0  0  0  0  0
   -4.4843    0.5364    1.1094 C   0  0  0  0  0  0
   -4.7261    0.9091    2.3654 F   0  0  0  0  0  0
   -5.0718   -0.6406    0.8904 F   0  0  0  0  0  0
   -2.9805    0.4435    0.8954 C   0  0  0  0  0  0
   -2.2992   -0.7723    1.1122 C   0  0  0  0  0  0
   -2.2454    1.5776    0.4941 C   0  0  0  0  0  0
   -0.9062   -0.8510    0.9207 C   0  0  0  0  0  0
   -0.8521    1.4946    0.3065 C   0  0  0  0  0  0
   -0.1610    0.2796    0.5158 C   0  0  0  0  0  0
    1.3001    0.1930    0.3226 C   0  0  0  0  0  0
    2.1524    1.2383    0.7416 C   0  0  0  0  0  0
    1.8847   -0.9390   -0.2850 C   0  0  0  0  0  0
    3.5501    1.1548    0.5712 C   0  0  0  0  0  0
    3.2777   -1.0307   -0.4622 C   0  0  0  0  0  0
    4.1320    0.0089   -0.0274 C   0  0  0  0  0  0
    4.3632    2.2211    1.0016 C   0  0  0  0  0  0
    5.5422   -0.0679   -0.1843 C   0  0  0  0  0  0
    5.7637    2.1649    0.8405 C   0  0  0  0  0  0
    6.2189   -1.2368   -0.7759 C   0  0  0  0  0  0
    6.3353    1.0178    0.2468 C   0  0  0  0  0  0
    6.6335    3.3065    1.2938 C   0  0  0  0  0  0
    6.9102   -1.1235   -1.9992 C   0  0  0  0  0  0
    6.1956   -2.4906   -0.1313 C   0  0  0  0  0  0
    7.8718    3.2234    1.1339 O   0  0  0  0  0  0
    6.0939    4.3069    1.8173 O   0  5  0  0  0  0
    7.5479   -2.2386   -2.5763 C   0  0  0  0  0  0
    6.8300   -3.6077   -0.7058 C   0  0  0  0  0  0
    7.5223   -3.4998   -1.9335 C   0  0  0  0  0  0
    8.2118   -4.6691   -2.5312 C   0  0  0  0  0  0
    8.7641   -5.6058   -1.7275 C   0  0  0  0  0  0
    8.2221   -4.8449   -4.0471 C   0  0  0  0  0  0
    9.4514   -6.8950   -2.1525 C   0  0  0  0  0  0
    9.4933   -4.2988   -4.7304 C   0  0  0  0  0  0
   10.9111   -6.7187   -2.6121 C   0  0  0  0  0  0
   10.8234   -4.6525   -4.0377 C   0  0  0  0  0  0
   11.0463   -6.1118   -3.9571 N   0  3  0  0  0  0
   -2.8406   -1.6510    1.4303 H   0  0  0  0  0  0
   -2.7468    2.5200    0.3304 H   0  0  0  0  0  0
   -0.4080   -1.7927    1.0991 H   0  0  0  0  0  0
   -0.3137    2.3773   -0.0066 H   0  0  0  0  0  0
    1.7298    2.1154    1.2104 H   0  0  0  0  0  0
    1.2614   -1.7513   -0.6291 H   0  0  0  0  0  0
    3.6721   -1.9143   -0.9401 H   0  0  0  0  0  0
    3.9027    3.0874    1.4550 H   0  0  0  0  0  0
    7.4070    0.9557    0.1213 H   0  0  0  0  0  0
    6.9454   -0.1710   -2.5080 H   0  0  0  0  0  0
    5.6748   -2.6007    0.8088 H   0  0  0  0  0  0
    8.0627   -2.1049   -3.5136 H   0  0  0  0  0  0
    6.7717   -4.5530   -0.1868 H   0  0  0  0  0  0
    8.7595   -5.4508   -0.6585 H   0  0  0  0  0  0
    8.1393   -5.9023   -4.2915 H   0  0  0  0  0  0
    7.3243   -4.3983   -4.4758 H   0  0  0  0  0  0
    9.4330   -7.5583   -1.2875 H   0  0  0  0  0  0
    8.8704   -7.4111   -2.9159 H   0  0  0  0  0  0
    9.5169   -4.6537   -5.7616 H   0  0  0  0  0  0
    9.4305   -3.2142   -4.8036 H   0  0  0  0  0  0
   11.4883   -6.1531   -1.8794 H   0  0  0  0  0  0
   11.3741   -7.7044   -2.6659 H   0  0  0  0  0  0
   11.6383   -4.2352   -4.6295 H   0  0  0  0  0  0
   10.9030   -4.1832   -3.0564 H   0  0  0  0  0  0
   11.9974   -6.2765   -4.2548 H   0  0  0  0  0  0
   10.4289   -6.5816   -4.6038 H   0  0  0  0  0  0
  1  2  1  0  0  0
  2  3  1  0  0  0
  2  4  1  0  0  0
  2  5  1  0  0  0
  5  6  2  0  0  0
  5  7  1  0  0  0
  6  8  1  0  0  0
  6 38  1  0  0  0
  7  9  2  0  0  0
  7 39  1  0  0  0
  8 10  2  0  0  0
  8 40  1  0  0  0
  9 10  1  0  0  0
  9 41  1  0  0  0
 10 11  1  0  0  0
 11 12  2  0  0  0
 11 13  1  0  0  0
 12 14  1  0  0  0
 12 42  1  0  0  0
 13 15  2  0  0  0
 13 43  1  0  0  0
 14 16  1  0  0  0
 14 17  2  0  0  0
 15 16  1  0  0  0
 15 44  1  0  0  0
 16 18  2  0  0  0
 17 19  1  0  0  0
 17 45  1  0  0  0
 18 20  1  0  0  0
 18 21  1  0  0  0
 19 22  1  0  0  0
 19 21  2  0  0  0
 20 23  2  0  0  0
 20 24  1  0  0  0
 21 46  1  0  0  0
 22 25  2  0  0  0
 22 26  1  0  0  0
 23 27  1  0  0  0
 23 47  1  0  0  0
 24 28  2  0  0  0
 24 48  1  0  0  0
 27 29  2  0  0  0
 27 49  1  0  0  0
 28 29  1  0  0  0
 28 50  1  0  0  0
 29 30  1  0  0  0
 30 31  2  0  0  0
 30 32  1  0  0  0
 31 33  1  0  0  0
 31 51  1  0  0  0
 32 34  1  0  0  0
 32 52  1  0  0  0
 32 53  1  0  0  0
 33 35  1  0  0  0
 33 54  1  0  0  0
 33 55  1  0  0  0
 34 36  1  0  0  0
 34 56  1  0  0  0
 34 57  1  0  0  0
 35 37  1  0  0  0
 35 58  1  0  0  0
 35 59  1  0  0  0
 36 37  1  0  0  0
 36 60  1  0  0  0
 36 61  1  0  0  0
 37 62  1  0  0  0
 37 63  1  0  0  0
M  CHG  2  26  -1  37   1
M  END
> <i_epik_Tot_Q>
0

> <i_epik_Tot_abs_Q>
2

> <i_lp_mmshare_version>
62121

> <i_m_Source_File_Index>
124

> <i_phase_Input_Structure_Number>
144

> <i_phase_Reference_Structure>
116

> <i_phase_Structure_Number>
144

> <Molecule Name>
198

> <Rotatable Bonds>
5

> <i_f3d_flags>
0

> <b_lp_Chiralities_Consistent>
1

> <r_canvas_IC50_human_P2Y14R,_nM>
58.4

> <r_canvas_pIC50>
7.2335871528876

> <r_epik_Charging_Adjusted_Penalty>
0.00160928071501078

> <r_epik_Ionization_Penalty>
  0.0016

> <r_epik_Ionization_Penalty_Charging>
  0.0016

> <r_epik_Ionization_Penalty_Neutral>
  0.0000

> <r_epik_State_Penalty>
  0.0000

> <r_lp_Energy>
70.83581

> <r_lp_tautomer_probability>
1

> <r_phase_Similarity_to_Reference>
0.774321264425941

> <s_canvas_CHEMBLID>
CHEMBL

> <s_canvas_Compound>
19

> <s_canvas_Paper>
Wen2023

> <s_epik_cmdline>
J2VwaWtfcHl0aG9uJywgJy1waCcsICc3LjAnLCAnLXRuJywgJzgnLCAnLW1hJywgJzUwMCcsICctaW1hZScsICc8aW5maWxlLm1hZT4nLCAnLW9tYWUnLCAnPG91dGZpbGUubWFlPic=

> <s_epik_input>
RkMoRikoRiljMVtjSF1bY0hdYyhbY0hdW2NIXTEpLWMoW2NIXTIpW2NIXVtjSF1jKGMyMyljKFtjSF1jKFtjSF0zKUMoPU8pW09IXSktYzRbY0hdW2NIXWMoW2NIXVtjSF00KS9DNT1bQ0hdL1tDSDJdW0NIMl1bTkhdW0NIMl1bQ0gyXVtDSDJdNQ==

> <s_lp_Force_Field>
S-OPLS

> <s_lp_Variant>
198-1

> <s_m_Source_File>
database-aligned.sdf

> <s_m_Source_Path>
/data/matteo/P2Y14-antagonists-piperidineDerivatives-Wen2023/14052024-optimized-alignment

> <s_m_entry_id>
124

> <s_m_entry_name>
database-aligned.124

> <s_m_job_name>
align_ligands_1

> <s_phase_Alignment_Method>
snapped core

> <s_phase_Alignment_Reason>


> <s_phase_Core_SMARTS>
a1aaaaa1-a(a2)aaa(a23)a(aaa3)-a4aaaaa4

$$$$
199
                    3D
 Schrodinger Suite 2023-2.
 66 70  0  0  1  0            999 V2000
   -5.0618   -0.5749    1.1439 F   0  0  0  0  0  0
   -4.4704    0.6159    1.0412 C   0  0  0  0  0  0
   -5.0046    1.2619    0.0045 F   0  0  0  0  0  0
   -4.7155    1.3103    2.1517 F   0  0  0  0  0  0
   -2.9663    0.4867    0.8505 C   0  0  0  0  0  0
   -2.2056    1.6222    0.5067 C   0  0  0  0  0  0
   -2.3101   -0.7501    1.0223 C   0  0  0  0  0  0
   -0.8117    1.5217    0.3337 C   0  0  0  0  0  0
   -0.9157   -0.8454    0.8477 C   0  0  0  0  0  0
   -0.1437    0.2871    0.5015 C   0  0  0  0  0  0
    1.3197    0.1839    0.3236 C   0  0  0  0  0  0
    2.1789    1.2193    0.7532 C   0  0  0  0  0  0
    1.9005   -0.9511   -0.2830 C   0  0  0  0  0  0
    3.5764    1.1267    0.5887 C   0  0  0  0  0  0
    3.2944   -1.0545   -0.4497 C   0  0  0  0  0  0
    4.1541   -0.0224   -0.0082 C   0  0  0  0  0  0
    4.3925    2.1899    1.0212 C   0  0  0  0  0  0
    5.5648   -0.1070   -0.1577 C   0  0  0  0  0  0
    5.7929    2.1278    0.8630 C   0  0  0  0  0  0
    6.2478   -1.2777   -0.7395 C   0  0  0  0  0  0
    6.3606    0.9763    0.2750 C   0  0  0  0  0  0
    6.6665    3.2669    1.3150 C   0  0  0  0  0  0
    6.1945   -2.5387   -0.1107 C   0  0  0  0  0  0
    6.9969   -1.1527   -1.9271 C   0  0  0  0  0  0
    7.9057    3.1730    1.1679 O   0  0  0  0  0  0
    6.1293    4.2760    1.8240 O   0  5  0  0  0  0
    6.8665   -3.6467   -0.6596 C   0  0  0  0  0  0
    7.6741   -2.2581   -2.4769 C   0  0  0  0  0  0
    7.6251   -3.5257   -1.8474 C   0  0  0  0  0  0
    8.3522   -4.7662   -2.3997 C   0  0  0  0  0  0
    7.4163   -5.8135   -2.5789 O   0  0  0  0  0  0
    8.9680   -4.5628   -3.8200 C   0  0  0  0  0  0
    9.3696   -5.2842   -1.3455 C   0  0  0  0  0  0
   10.2868   -3.7615   -3.9185 C   0  0  0  0  0  0
   10.2910   -6.4352   -1.8076 C   0  0  0  0  0  0
   11.5802   -4.6018   -3.8695 C   0  0  0  0  0  0
   11.7866   -6.0725   -1.8391 C   0  0  0  0  0  0
   12.0843   -4.7782   -2.4927 N   0  3  0  0  0  0
   -2.6922    2.5774    0.3749 H   0  0  0  0  0  0
   -2.8677   -1.6345    1.2927 H   0  0  0  0  0  0
   -0.2558    2.4073    0.0627 H   0  0  0  0  0  0
   -0.4381   -1.8031    0.9932 H   0  0  0  0  0  0
    1.7625    2.0981    1.2239 H   0  0  0  0  0  0
    1.2741   -1.7567   -0.6368 H   0  0  0  0  0  0
    3.6857   -1.9392   -0.9282 H   0  0  0  0  0  0
    3.9347    3.0591    1.4716 H   0  0  0  0  0  0
    7.4324    0.9093    0.1551 H   0  0  0  0  0  0
    5.6311   -2.6592    0.8032 H   0  0  0  0  0  0
    7.0548   -0.1956   -2.4250 H   0  0  0  0  0  0
    6.7951   -4.5976   -0.1530 H   0  0  0  0  0  0
    8.2235   -2.0982   -3.3903 H   0  0  0  0  0  0
    7.0187   -6.0084   -1.7439 H   0  0  0  0  0  0
    9.1324   -5.5243   -4.3073 H   0  0  0  0  0  0
    8.2172   -4.0932   -4.4571 H   0  0  0  0  0  0
    9.9717   -4.4466   -0.9921 H   0  0  0  0  0  0
    8.8356   -5.6198   -0.4556 H   0  0  0  0  0  0
   10.2755   -3.2624   -4.8882 H   0  0  0  0  0  0
   10.3261   -2.9564   -3.1846 H   0  0  0  0  0  0
   10.1651   -7.2771   -1.1258 H   0  0  0  0  0  0
    9.9857   -6.8310   -2.7745 H   0  0  0  0  0  0
   11.4834   -5.5540   -4.3929 H   0  0  0  0  0  0
   12.3563   -4.0490   -4.3994 H   0  0  0  0  0  0
   12.1696   -6.0184   -0.8197 H   0  0  0  0  0  0
   12.3476   -6.8630   -2.3389 H   0  0  0  0  0  0
   13.0900   -4.6867   -2.5206 H   0  0  0  0  0  0
   11.7165   -4.0295   -1.9231 H   0  0  0  0  0  0
  1  2  1  0  0  0
  2  3  1  0  0  0
  2  4  1  0  0  0
  2  5  1  0  0  0
  5  6  2  0  0  0
  5  7  1  0  0  0
  6  8  1  0  0  0
  6 39  1  0  0  0
  7  9  2  0  0  0
  7 40  1  0  0  0
  8 10  2  0  0  0
  8 41  1  0  0  0
  9 10  1  0  0  0
  9 42  1  0  0  0
 10 11  1  0  0  0
 11 12  2  0  0  0
 11 13  1  0  0  0
 12 14  1  0  0  0
 12 43  1  0  0  0
 13 15  2  0  0  0
 13 44  1  0  0  0
 14 16  1  0  0  0
 14 17  2  0  0  0
 15 16  1  0  0  0
 15 45  1  0  0  0
 16 18  2  0  0  0
 17 19  1  0  0  0
 17 46  1  0  0  0
 18 20  1  0  0  0
 18 21  1  0  0  0
 19 22  1  0  0  0
 19 21  2  0  0  0
 20 23  2  0  0  0
 20 24  1  0  0  0
 21 47  1  0  0  0
 22 25  2  0  0  0
 22 26  1  0  0  0
 23 27  1  0  0  0
 23 48  1  0  0  0
 24 28  2  0  0  0
 24 49  1  0  0  0
 27 29  2  0  0  0
 27 50  1  0  0  0
 28 29  1  0  0  0
 28 51  1  0  0  0
 29 30  1  0  0  0
 30 31  1  0  0  0
 30 32  1  0  0  0
 30 33  1  0  0  0
 31 52  1  0  0  0
 32 34  1  0  0  0
 32 53  1  0  0  0
 32 54  1  0  0  0
 33 35  1  0  0  0
 33 55  1  0  0  0
 33 56  1  0  0  0
 34 36  1  0  0  0
 34 57  1  0  0  0
 34 58  1  0  0  0
 35 37  1  0  0  0
 35 59  1  0  0  0
 35 60  1  0  0  0
 36 38  1  0  0  0
 36 61  1  0  0  0
 36 62  1  0  0  0
 37 38  1  0  0  0
 37 63  1  0  0  0
 37 64  1  0  0  0
 38 65  1  0  0  0
 38 66  1  0  0  0
M  CHG  2  26  -1  38   1
M  END
> <i_epik_Tot_Q>
0

> <i_epik_Tot_abs_Q>
2

> <i_lp_mmshare_version>
62121

> <i_m_Source_File_Index>
125

> <i_phase_Input_Structure_Number>
145

> <i_phase_Reference_Structure>
136

> <i_phase_Structure_Number>
145

> <Molecule Name>
199

> <Rotatable Bonds>
5

> <i_f3d_flags>
0

> <b_lp_Chiralities_Consistent>
1

> <r_canvas_IC50_human_P2Y14R,_nM>
1780

> <r_canvas_pIC50>
5.74957999769111

> <r_epik_Charging_Adjusted_Penalty>
0.00131945139185061

> <r_epik_Ionization_Penalty>
  0.0013

> <r_epik_Ionization_Penalty_Charging>
  0.0013

> <r_epik_Ionization_Penalty_Neutral>
  0.0000

> <r_epik_State_Penalty>
  0.0000

> <r_lp_Energy>
80.749129

> <r_lp_tautomer_probability>
1

> <r_phase_Similarity_to_Reference>
0.936071574687952

> <s_canvas_CHEMBLID>
CHEMBL

> <s_canvas_Compound>
20

> <s_canvas_Paper>
Wen2023

> <s_epik_cmdline>
J2VwaWtfcHl0aG9uJywgJy1waCcsICc3LjAnLCAnLXRuJywgJzgnLCAnLW1hJywgJzUwMCcsICctaW1hZScsICc8aW5maWxlLm1hZT4nLCAnLW9tYWUnLCAnPG91dGZpbGUubWFlPic=

> <s_epik_input>
RkMoRikoRiljMVtjSF1bY0hdYyhbY0hdW2NIXTEpLWMoW2NIXTIpW2NIXVtjSF1jKGMyMyljKFtjSF1jKFtjSF0zKUMoPU8pW09IXSktYzRbY0hdW2NIXWMoW2NIXVtjSF00KUM1KFtPSF0pW0NIMl1bQ0gyXVtDSDJdW05IXVtDSDJdW0NIMl1bQ0gyXTU=

> <s_lp_Force_Field>
S-OPLS

> <s_lp_Variant>
199-1

> <s_m_Source_File>
database-aligned.sdf

> <s_m_Source_Path>
/data/matteo/P2Y14-antagonists-piperidineDerivatives-Wen2023/14052024-optimized-alignment

> <s_m_entry_id>
125

> <s_m_entry_name>
database-aligned.125

> <s_m_job_name>
align_ligands_1

> <s_phase_Alignment_Method>
flexible least-squares core

> <s_phase_Alignment_Reason>
creation of a close contact

> <s_phase_Core_SMARTS>
a1aaaaa1-a(a2)aaa(a23)a(aaa3)-a4aaa(aa4)A5AAA[A]AAA5

$$$$
200
                    3D
 Schrodinger Suite 2023-2.
 75 80  0  0  1  0            999 V2000
   -5.0261    1.4324    0.2838 F   0  0  0  0  0  0
   -4.4843    0.5364    1.1094 C   0  0  0  0  0  0
   -4.7261    0.9091    2.3654 F   0  0  0  0  0  0
   -5.0718   -0.6406    0.8904 F   0  0  0  0  0  0
   -2.9805    0.4435    0.8954 C   0  0  0  0  0  0
   -2.2992   -0.7723    1.1122 C   0  0  0  0  0  0
   -2.2454    1.5776    0.4941 C   0  0  0  0  0  0
   -0.9062   -0.8510    0.9207 C   0  0  0  0  0  0
   -0.8521    1.4946    0.3065 C   0  0  0  0  0  0
   -0.1610    0.2796    0.5158 C   0  0  0  0  0  0
    1.3001    0.1930    0.3226 C   0  0  0  0  0  0
    2.1524    1.2383    0.7416 C   0  0  0  0  0  0
    1.8847   -0.9390   -0.2850 C   0  0  0  0  0  0
    3.5501    1.1548    0.5712 C   0  0  0  0  0  0
    3.2777   -1.0307   -0.4622 C   0  0  0  0  0  0
    4.1320    0.0089   -0.0274 C   0  0  0  0  0  0
    4.3632    2.2211    1.0016 C   0  0  0  0  0  0
    5.5422   -0.0679   -0.1843 C   0  0  0  0  0  0
    5.7637    2.1649    0.8405 C   0  0  0  0  0  0
    6.2189   -1.2368   -0.7759 C   0  0  0  0  0  0
    6.3353    1.0178    0.2468 C   0  0  0  0  0  0
    6.6534    3.2837    1.2665 C   0  0  0  0  0  0
    6.9102   -1.1235   -1.9992 C   0  0  0  0  0  0
    6.1956   -2.4906   -0.1313 C   0  0  0  0  0  0
    7.8793    3.2601    1.1401 O   0  0  0  0  0  0
    5.9706    4.3301    1.7955 O   0  0  0  0  0  0
    7.5479   -2.2386   -2.5763 C   0  0  0  0  0  0
    6.8300   -3.6077   -0.7058 C   0  0  0  0  0  0
    6.6329    5.5000    2.2772 C   0  0  0  0  0  0
    7.5223   -3.4998   -1.9335 C   0  0  0  0  0  0
    7.3467    5.2362    3.6170 C   0  0  0  0  0  0
    8.1668   -4.7603   -2.5405 C   0  0  1  0  0  0
    8.5748    5.3244    3.6450 O   0  0  0  0  0  0
    6.6194    4.9193    4.7140 N   0  0  0  0  0  0
    7.1322   -5.6462   -2.9349 O   0  0  0  0  0  0
    9.1677   -4.5137   -3.6951 C   0  0  2  0  0  0
    9.1681   -5.4314   -1.5741 C   0  0  2  0  0  0
    5.1552    4.8506    4.7239 C   0  0  0  0  0  0
    7.2868    4.6240    5.9843 C   0  0  0  0  0  0
    9.5605   -5.8453   -4.3903 C   0  0  0  0  0  0
   10.0500   -4.3387   -2.3607 C   0  0  0  0  0  0
    9.5748   -6.8461   -2.0682 C   0  0  0  0  0  0
   10.1128   -6.8814   -3.4645 N   0  3  0  0  0  0
   -2.8406   -1.6509    1.4308 H   0  0  0  0  0  0
   -2.7469    2.5200    0.3300 H   0  0  0  0  0  0
   -0.4075   -1.7926    1.0991 H   0  0  0  0  0  0
   -0.3140    2.3771   -0.0076 H   0  0  0  0  0  0
    1.7291    2.1149    1.2103 H   0  0  0  0  0  0
    1.2615   -1.7511   -0.6295 H   0  0  0  0  0  0
    3.6720   -1.9143   -0.9406 H   0  0  0  0  0  0
    3.8929    3.0830    1.4523 H   0  0  0  0  0  0
    7.4068    0.9551    0.1192 H   0  0  0  0  0  0
    6.9423   -0.1726   -2.5109 H   0  0  0  0  0  0
    5.6743   -2.6022    0.8083 H   0  0  0  0  0  0
    8.0381   -2.0805   -3.5212 H   0  0  0  0  0  0
    6.7753   -4.5593   -0.1976 H   0  0  0  0  0  0
    7.3485    5.8621    1.5364 H   0  0  0  0  0  0
    5.9030    6.2999    2.3992 H   0  0  0  0  0  0
    6.6030   -5.8461   -2.1777 H   0  0  0  0  0  0
    9.0395   -3.6511   -4.3434 H   0  0  0  0  0  0
    9.0240   -5.2795   -0.5042 H   0  0  0  0  0  0
    4.7082    5.7244    4.2494 H   0  0  0  0  0  0
    4.7506    4.8108    5.7354 H   0  0  0  0  0  0
    4.8118    3.9587    4.1992 H   0  0  0  0  0  0
    7.7328    5.5300    6.3966 H   0  0  0  0  0  0
    8.0800    3.8878    5.8460 H   0  0  0  0  0  0
    6.6065    4.2175    6.7326 H   0  0  0  0  0  0
    8.6981   -6.2698   -4.9049 H   0  0  0  0  0  0
   10.3050   -5.6624   -5.1653 H   0  0  0  0  0  0
   11.0961   -4.6230   -2.4843 H   0  0  0  0  0  0
   10.0391   -3.3364   -1.9231 H   0  0  0  0  0  0
   10.3310   -7.2740   -1.4100 H   0  0  0  0  0  0
    8.7200   -7.5207   -2.0141 H   0  0  0  0  0  0
   10.0002   -7.8036   -3.8614 H   0  0  0  0  0  0
   11.1018   -6.6906   -3.3885 H   0  0  0  0  0  0
  1  2  1  0  0  0
  2  3  1  0  0  0
  2  4  1  0  0  0
  2  5  1  0  0  0
  5  6  2  0  0  0
  5  7  1  0  0  0
  6  8  1  0  0  0
  6 44  1  0  0  0
  7  9  2  0  0  0
  7 45  1  0  0  0
  8 10  2  0  0  0
  8 46  1  0  0  0
  9 10  1  0  0  0
  9 47  1  0  0  0
 10 11  1  0  0  0
 11 12  2  0  0  0
 11 13  1  0  0  0
 12 14  1  0  0  0
 12 48  1  0  0  0
 13 15  2  0  0  0
 13 49  1  0  0  0
 14 16  1  0  0  0
 14 17  2  0  0  0
 15 16  1  0  0  0
 15 50  1  0  0  0
 16 18  2  0  0  0
 17 19  1  0  0  0
 17 51  1  0  0  0
 18 20  1  0  0  0
 18 21  1  0  0  0
 19 22  1  0  0  0
 19 21  2  0  0  0
 20 23  2  0  0  0
 20 24  1  0  0  0
 21 52  1  0  0  0
 22 25  2  0  0  0
 22 26  1  0  0  0
 23 27  1  0  0  0
 23 53  1  0  0  0
 24 28  2  0  0  0
 24 54  1  0  0  0
 26 29  1  0  0  0
 27 30  2  0  0  0
 27 55  1  0  0  0
 28 30  1  0  0  0
 28 56  1  0  0  0
 29 31  1  0  0  0
 29 57  1  0  0  0
 29 58  1  0  0  0
 30 32  1  0  0  0
 31 33  2  0  0  0
 31 34  1  0  0  0
 32 35  1  0  0  0
 32 36  1  0  0  0
 32 37  1  0  0  0
 34 38  1  0  0  0
 34 39  1  0  0  0
 35 59  1  0  0  0
 36 40  1  0  0  0
 36 41  1  0  0  0
 36 60  1  0  0  0
 37 42  1  0  0  0
 37 41  1  0  0  0
 37 61  1  0  0  0
 38 62  1  0  0  0
 38 63  1  0  0  0
 38 64  1  0  0  0
 39 65  1  0  0  0
 39 66  1  0  0  0
 39 67  1  0  0  0
 40 43  1  0  0  0
 40 68  1  0  0  0
 40 69  1  0  0  0
 41 70  1  0  0  0
 41 71  1  0  0  0
 42 43  1  0  0  0
 42 72  1  0  0  0
 42 73  1  0  0  0
 43 74  1  0  0  0
 43 75  1  0  0  0
M  CHG  1  43   1
M  END
> <i_epik_Tot_Q>
1

> <i_epik_Tot_abs_Q>
1

> <i_lp_mmshare_version>
62121

> <i_m_Source_File_Index>
126

> <i_phase_Input_Structure_Number>
146

> <i_phase_Reference_Structure>
116

> <i_phase_Structure_Number>
146

> <Molecule Name>
200

> <Rotatable Bonds>
8

> <i_f3d_flags>
0

> <b_lp_Chiralities_Consistent>
1

> <r_canvas_IC50_human_P2Y14R,_nM>
4810

> <r_canvas_pIC50>
5.31785492362617

> <r_epik_Charging_Adjusted_Penalty>
0.000295151030623974

> <r_epik_Ionization_Penalty>
  0.0003

> <r_epik_Ionization_Penalty_Charging>
  0.0003

> <r_epik_Ionization_Penalty_Neutral>
  0.0000

> <r_epik_State_Penalty>
  0.0000

> <r_lp_Energy>
81.936369

> <r_lp_tautomer_probability>
1

> <r_phase_Similarity_to_Reference>
0.806286464892562

> <s_canvas_CHEMBLID>
CHEMBL

> <s_canvas_Compound>
49

> <s_canvas_Paper>
Wen2023

> <s_epik_Chemistry_Notes>
This compound has an ester and may undergo hydrolysis at high or low pH.

> <s_epik_cmdline>
J2VwaWtfcHl0aG9uJywgJy1waCcsICc3LjAnLCAnLXRuJywgJzgnLCAnLW1hJywgJzUwMCcsICctaW1hZScsICc8aW5maWxlLm1hZT4nLCAnLW9tYWUnLCAnPG91dGZpbGUubWFlPic=

> <s_epik_input>
RkMoRikoRiljMVtjSF1bY0hdYyhbY0hdW2NIXTEpLWMoW2NIXTIpW2NIXVtjSF1jKGMyMyljKFtjSF1jKFtjSF0zKUMoPU8pT1tDSDJdQyg9TylOKFtDSDNdKVtDSDNdKS1jNFtjSF1bY0hdYyhbY0hdW2NIXTQpW0NAQF0oW09IXSkoW0NASF01NilbQ0BIXShbQ0gyXTYpW0NIMl1bTkhdW0NIMl01

> <s_lp_Force_Field>
S-OPLS

> <s_lp_Variant>
200-1

> <s_m_Source_File>
database-aligned.sdf

> <s_m_Source_Path>
/data/matteo/P2Y14-antagonists-piperidineDerivatives-Wen2023/14052024-optimized-alignment

> <s_m_entry_id>
126

> <s_m_entry_name>
database-aligned.126

> <s_m_job_name>
align_ligands_1

> <s_phase_Alignment_Method>
snapped core

> <s_phase_Alignment_Reason>


> <s_phase_Core_SMARTS>
a1aaaaa1-a(a2)aaa(a23)a(aaa3)-a4aaa(aa4)A5AA[A]AA5

$$$$
202
                    3D
 Schrodinger Suite 2023-2.
 69 74  0  0  1  0            999 V2000
   -5.0261    1.4324    0.2838 F   0  0  0  0  0  0
   -4.4843    0.5364    1.1094 C   0  0  0  0  0  0
   -4.7261    0.9091    2.3654 F   0  0  0  0  0  0
   -5.0718   -0.6406    0.8904 F   0  0  0  0  0  0
   -2.9805    0.4435    0.8954 C   0  0  0  0  0  0
   -2.2992   -0.7723    1.1122 C   0  0  0  0  0  0
   -2.2454    1.5776    0.4941 C   0  0  0  0  0  0
   -0.9062   -0.8510    0.9207 C   0  0  0  0  0  0
   -0.8521    1.4946    0.3065 C   0  0  0  0  0  0
   -0.1610    0.2796    0.5158 C   0  0  0  0  0  0
    1.3001    0.1930    0.3226 C   0  0  0  0  0  0
    2.1524    1.2383    0.7416 C   0  0  0  0  0  0
    1.8847   -0.9390   -0.2850 C   0  0  0  0  0  0
    3.5501    1.1548    0.5712 C   0  0  0  0  0  0
    3.2777   -1.0307   -0.4622 C   0  0  0  0  0  0
    4.1320    0.0089   -0.0274 C   0  0  0  0  0  0
    4.3632    2.2211    1.0016 C   0  0  0  0  0  0
    5.5422   -0.0679   -0.1843 C   0  0  0  0  0  0
    5.7637    2.1649    0.8405 C   0  0  0  0  0  0
    6.2189   -1.2368   -0.7759 C   0  0  0  0  0  0
    6.3353    1.0178    0.2468 C   0  0  0  0  0  0
    6.6335    3.3065    1.2938 C   0  0  0  0  0  0
    6.9102   -1.1235   -1.9992 C   0  0  0  0  0  0
    6.1956   -2.4906   -0.1313 C   0  0  0  0  0  0
    7.8718    3.2234    1.1339 O   0  0  0  0  0  0
    6.0939    4.3069    1.8173 O   0  5  0  0  0  0
    7.5479   -2.2386   -2.5763 C   0  0  0  0  0  0
    6.8300   -3.6077   -0.7058 C   0  0  0  0  0  0
    7.5223   -3.4998   -1.9335 C   0  0  0  0  0  0
    8.1668   -4.7603   -2.5405 C   0  0  1  0  0  0
    7.1322   -5.6462   -2.9349 O   0  0  0  0  0  0
    9.1677   -4.5137   -3.6951 C   0  0  2  0  0  0
    9.1681   -5.4314   -1.5741 C   0  0  2  0  0  0
    9.5605   -5.8453   -4.3903 C   0  0  0  0  0  0
   10.0500   -4.3387   -2.3607 C   0  0  0  0  0  0
    9.5748   -6.8461   -2.0682 C   0  0  0  0  0  0
   10.1128   -6.8814   -3.4645 N   0  0  0  0  0  0
   10.9564   -7.9223   -3.8678 C   0  0  0  0  0  0
   11.4029   -8.8078   -3.1356 O   0  0  0  0  0  0
   11.2116   -7.8474   -5.1896 O   0  0  0  0  0  0
   12.0376   -8.8199   -5.8093 C   0  0  0  0  0  0
   11.9942   -8.6248   -7.3264 C   0  0  0  0  0  0
   -2.8406   -1.6506    1.4311 H   0  0  0  0  0  0
   -2.7461    2.5205    0.3314 H   0  0  0  0  0  0
   -0.4078   -1.7928    1.0994 H   0  0  0  0  0  0
   -0.3135    2.3774   -0.0063 H   0  0  0  0  0  0
    1.7300    2.1153    1.2109 H   0  0  0  0  0  0
    1.2615   -1.7513   -0.6290 H   0  0  0  0  0  0
    3.6724   -1.9143   -0.9399 H   0  0  0  0  0  0
    3.9027    3.0871    1.4555 H   0  0  0  0  0  0
    7.4069    0.9553    0.1221 H   0  0  0  0  0  0
    6.9426   -0.1718   -2.5096 H   0  0  0  0  0  0
    5.6746   -2.6011    0.8086 H   0  0  0  0  0  0
    8.0395   -2.0810   -3.5205 H   0  0  0  0  0  0
    6.7767   -4.5593   -0.1977 H   0  0  0  0  0  0
    6.6030   -5.8461   -2.1777 H   0  0  0  0  0  0
    9.0426   -3.6505   -4.3430 H   0  0  0  0  0  0
    9.0270   -5.2788   -0.5040 H   0  0  0  0  0  0
    8.7116   -6.2691   -4.9274 H   0  0  0  0  0  0
   10.3002   -5.6027   -5.1541 H   0  0  0  0  0  0
   11.0954   -4.6252   -2.4852 H   0  0  0  0  0  0
   10.0402   -3.3365   -1.9232 H   0  0  0  0  0  0
   10.3281   -7.2420   -1.3857 H   0  0  0  0  0  0
    8.7306   -7.5335   -2.0021 H   0  0  0  0  0  0
   13.0601   -8.7190   -5.4438 H   0  0  0  0  0  0
   11.6941   -9.8239   -5.5560 H   0  0  0  0  0  0
   12.6275   -9.3560   -7.8288 H   0  0  0  0  0  0
   12.3435   -7.6305   -7.6048 H   0  0  0  0  0  0
   10.9795   -8.7440   -7.7075 H   0  0  0  0  0  0
  1  2  1  0  0  0
  2  3  1  0  0  0
  2  4  1  0  0  0
  2  5  1  0  0  0
  5  6  2  0  0  0
  5  7  1  0  0  0
  6  8  1  0  0  0
  6 43  1  0  0  0
  7  9  2  0  0  0
  7 44  1  0  0  0
  8 10  2  0  0  0
  8 45  1  0  0  0
  9 10  1  0  0  0
  9 46  1  0  0  0
 10 11  1  0  0  0
 11 12  2  0  0  0
 11 13  1  0  0  0
 12 14  1  0  0  0
 12 47  1  0  0  0
 13 15  2  0  0  0
 13 48  1  0  0  0
 14 16  1  0  0  0
 14 17  2  0  0  0
 15 16  1  0  0  0
 15 49  1  0  0  0
 16 18  2  0  0  0
 17 19  1  0  0  0
 17 50  1  0  0  0
 18 20  1  0  0  0
 18 21  1  0  0  0
 19 22  1  0  0  0
 19 21  2  0  0  0
 20 23  2  0  0  0
 20 24  1  0  0  0
 21 51  1  0  0  0
 22 25  2  0  0  0
 22 26  1  0  0  0
 23 27  1  0  0  0
 23 52  1  0  0  0
 24 28  2  0  0  0
 24 53  1  0  0  0
 27 29  2  0  0  0
 27 54  1  0  0  0
 28 29  1  0  0  0
 28 55  1  0  0  0
 29 30  1  0  0  0
 30 31  1  0  0  0
 30 32  1  0  0  0
 30 33  1  0  0  0
 31 56  1  0  0  0
 32 34  1  0  0  0
 32 35  1  0  0  0
 32 57  1  0  0  0
 33 36  1  0  0  0
 33 35  1  0  0  0
 33 58  1  0  0  0
 34 37  1  0  0  0
 34 59  1  0  0  0
 34 60  1  0  0  0
 35 61  1  0  0  0
 35 62  1  0  0  0
 36 37  1  0  0  0
 36 63  1  0  0  0
 36 64  1  0  0  0
 37 38  1  0  0  0
 38 39  2  0  0  0
 38 40  1  0  0  0
 40 41  1  0  0  0
 41 42  1  0  0  0
 41 65  1  0  0  0
 41 66  1  0  0  0
 42 67  1  0  0  0
 42 68  1  0  0  0
 42 69  1  0  0  0
M  CHG  1  26  -1
M  END
> <i_epik_Tot_Q>
-1

> <i_epik_Tot_abs_Q>
1

> <i_lp_mmshare_version>
62121

> <i_m_Source_File_Index>
127

> <i_phase_Input_Structure_Number>
147

> <i_phase_Reference_Structure>
146

> <i_phase_Structure_Number>
147

> <Molecule Name>
202

> <Rotatable Bonds>
7

> <i_f3d_flags>
0

> <b_lp_Chiralities_Consistent>
1

> <r_canvas_IC50_human_P2Y14R,_nM>
81.6

> <r_canvas_pIC50>
7.08830984124614

> <r_epik_Charging_Adjusted_Penalty>
0.00143519162298062

> <r_epik_Ionization_Penalty>
  0.0007

> <r_epik_Ionization_Penalty_Charging>
  0.0007

> <r_epik_Ionization_Penalty_Neutral>
  0.0000

> <r_epik_State_Penalty>
  0.0007

> <r_lp_Energy>
75.519362

> <r_phase_Similarity_to_Reference>
0.883267954104344

> <s_canvas_CHEMBLID>
CHEMBL

> <s_canvas_Compound>
51

> <s_canvas_Paper>
Wen2023

> <s_epik_Chemistry_Notes>
This compound has an ester and may undergo hydrolysis at high or low pH.

> <s_epik_cmdline>
J2VwaWtfcHl0aG9uJywgJy1waCcsICc3LjAnLCAnLXRuJywgJzgnLCAnLW1hJywgJzUwMCcsICctaW1hZScsICc8aW5maWxlLm1hZT4nLCAnLW9tYWUnLCAnPG91dGZpbGUubWFlPic=

> <s_epik_input>
RkMoRikoRiljMVtjSF1bY0hdYyhbY0hdW2NIXTEpLWMoW2NIXTIpW2NIXVtjSF1jKGMyMyljKFtjSF1jKFtjSF0zKUMoPU8pW09IXSktYzRbY0hdW2NIXWMoW2NIXVtjSF00KVtDQEBdKFtPSF0pKFtDQEhdNTYpW0NASF0oW0NIMl02KVtDSDJdTihbQ0gyXTUpQyg9TylPW0NIMl1bQ0gzXQ==

> <s_lp_Force_Field>
S-OPLS

> <s_lp_Variant>
202-1

> <s_m_Source_File>
database-aligned.sdf

> <s_m_Source_Path>
/data/matteo/P2Y14-antagonists-piperidineDerivatives-Wen2023/14052024-optimized-alignment

> <s_m_entry_id>
127

> <s_m_entry_name>
database-aligned.127

> <s_m_job_name>
align_ligands_1

> <s_phase_Alignment_Method>
snapped core

> <s_phase_Alignment_Reason>


> <s_phase_Core_SMARTS>
A12A[A]AA(A1)A2a3aaa(aa3)-a(aaa4)a(a45)aaa(a5)-a6aaaaa6

$$$$
