1
                    3D
 Schrodinger Suite 2023-2.
 59 63  0  0  1  0            999 V2000
    6.0939    4.3069    1.8173 O   0  5  0  0  0  0
    6.6335    3.3065    1.2938 C   0  0  0  0  0  0
    5.7637    2.1649    0.8405 C   0  0  0  0  0  0
    4.3632    2.2211    1.0016 C   0  0  0  0  0  0
    3.5501    1.1548    0.5712 C   0  0  0  0  0  0
    2.1524    1.2383    0.7416 C   0  0  0  0  0  0
    1.3001    0.1930    0.3226 C   0  0  0  0  0  0
   -0.1610    0.2796    0.5158 C   0  0  0  0  0  0
   -0.9062   -0.8510    0.9207 C   0  0  0  0  0  0
   -2.2992   -0.7723    1.1122 C   0  0  0  0  0  0
   -2.9805    0.4435    0.8954 C   0  0  0  0  0  0
   -4.4843    0.5364    1.1094 C   0  0  0  0  0  0
   -5.0261    1.4324    0.2838 F   0  0  0  0  0  0
   -4.7261    0.9091    2.3654 F   0  0  0  0  0  0
   -5.0718   -0.6406    0.8904 F   0  0  0  0  0  0
   -2.2454    1.5776    0.4941 C   0  0  0  0  0  0
   -0.8521    1.4946    0.3065 C   0  0  0  0  0  0
    1.8847   -0.9390   -0.2850 C   0  0  0  0  0  0
    3.2777   -1.0307   -0.4622 C   0  0  0  0  0  0
    4.1320    0.0089   -0.0274 C   0  0  0  0  0  0
    5.5422   -0.0679   -0.1843 C   0  0  0  0  0  0
    6.2189   -1.2368   -0.7759 C   0  0  0  0  0  0
    6.1956   -2.4906   -0.1313 C   0  0  0  0  0  0
    6.8300   -3.6077   -0.7058 C   0  0  0  0  0  0
    7.5223   -3.4998   -1.9335 C   0  0  0  0  0  0
    7.5479   -2.2386   -2.5763 C   0  0  0  0  0  0
    6.9102   -1.1235   -1.9992 C   0  0  0  0  0  0
    8.1668   -4.7603   -2.5405 C   0  0  0  0  0  0
    9.1677   -4.5137   -3.6951 C   0  0  0  0  0  0
    9.5605   -5.8453   -4.3903 C   0  0  0  0  0  0
   10.1128   -6.8814   -3.4645 N   0  3  0  0  0  0
    9.5748   -6.8461   -2.0682 C   0  0  0  0  0  0
    9.1681   -5.4314   -1.5741 C   0  0  0  0  0  0
    6.3353    1.0178    0.2468 C   0  0  0  0  0  0
    7.8718    3.2234    1.1339 O   0  0  0  0  0  0
    3.9024    3.0870    1.4554 H   0  0  0  0  0  0
    1.7301    2.1154    1.2106 H   0  0  0  0  0  0
   -0.4079   -1.7928    1.0981 H   0  0  0  0  0  0
   -2.8412   -1.6516    1.4276 H   0  0  0  0  0  0
   -2.7464    2.5199    0.3283 H   0  0  0  0  0  0
   -0.3136    2.3771   -0.0067 H   0  0  0  0  0  0
    1.2616   -1.7516   -0.6286 H   0  0  0  0  0  0
    3.6723   -1.9146   -0.9395 H   0  0  0  0  0  0
    5.6731   -2.6011    0.8078 H   0  0  0  0  0  0
    6.7658   -4.5573   -0.1962 H   0  0  0  0  0  0
    8.0539   -2.0961   -3.5177 H   0  0  0  0  0  0
    6.9446   -0.1711   -2.5082 H   0  0  0  0  0  0
    7.3708   -5.4448   -2.8377 H   0  0  0  0  0  0
    8.6890   -3.9122   -4.4670 H   0  0  0  0  0  0
   10.0483   -3.9468   -3.3868 H   0  0  0  0  0  0
    8.6721   -6.2700   -4.8592 H   0  0  0  0  0  0
   10.2765   -5.6658   -5.1926 H   0  0  0  0  0  0
    9.9942   -7.8028   -3.8611 H   0  0  0  0  0  0
    8.6942   -7.4890   -2.0447 H   0  0  0  0  0  0
   10.3031   -7.2966   -1.3936 H   0  0  0  0  0  0
   10.0467   -4.8125   -1.3823 H   0  0  0  0  0  0
    8.7080   -5.5690   -0.5965 H   0  0  0  0  0  0
    7.4070    0.9553    0.1219 H   0  0  0  0  0  0
   11.1026   -6.6943   -3.3901 H   0  0  0  0  0  0
  1  2  1  0  0  0
  2  3  1  0  0  0
  2 35  2  0  0  0
  3 34  1  0  0  0
  3  4  2  0  0  0
  4  5  1  0  0  0
  4 36  1  0  0  0
  5 20  1  0  0  0
  5  6  2  0  0  0
  6  7  1  0  0  0
  6 37  1  0  0  0
  7  8  1  0  0  0
  7 18  2  0  0  0
  8 17  1  0  0  0
  8  9  2  0  0  0
  9 10  1  0  0  0
  9 38  1  0  0  0
 10 11  2  0  0  0
 10 39  1  0  0  0
 11 12  1  0  0  0
 11 16  1  0  0  0
 12 13  1  0  0  0
 12 14  1  0  0  0
 12 15  1  0  0  0
 16 17  2  0  0  0
 16 40  1  0  0  0
 17 41  1  0  0  0
 18 19  1  0  0  0
 18 42  1  0  0  0
 19 20  2  0  0  0
 19 43  1  0  0  0
 20 21  1  0  0  0
 21 22  1  0  0  0
 21 34  2  0  0  0
 22 27  1  0  0  0
 22 23  2  0  0  0
 23 24  1  0  0  0
 23 44  1  0  0  0
 24 25  2  0  0  0
 24 45  1  0  0  0
 25 26  1  0  0  0
 25 28  1  0  0  0
 26 27  2  0  0  0
 26 46  1  0  0  0
 27 47  1  0  0  0
 28 33  1  0  0  0
 28 29  1  0  0  0
 28 48  1  0  0  0
 29 30  1  0  0  0
 29 49  1  0  0  0
 29 50  1  0  0  0
 30 31  1  0  0  0
 30 51  1  0  0  0
 30 52  1  0  0  0
 31 32  1  0  0  0
 31 53  1  0  0  0
 31 59  1  0  0  0
 32 33  1  0  0  0
 32 54  1  0  0  0
 32 55  1  0  0  0
 33 56  1  0  0  0
 33 57  1  0  0  0
 34 58  1  0  0  0
M  CHG  2   1  -1  31   1
M  END
> <i_epik_Tot_Q>
0

> <i_epik_Tot_abs_Q>
2

> <i_lp_mmshare_version>
62121

> <i_m_Source_File_Index>
1

> <i_phase_Input_Structure_Number>
1

> <i_phase_Reference_Structure>
1

> <i_phase_Structure_Number>
1

> <i_f3d_flags>
0

> <b_lp_Chiralities_Consistent>
1

> <b_m_subgroup_collapsed>
0

> <r_canvas_IC50_(nM)_at_hP2Y14R>
7.96

> <r_canvas_pIC50>
8.09908693226233

> <r_epik_Charging_Adjusted_Penalty>
0.0012733390979885

> <r_epik_Ionization_Penalty>
  0.0013

> <r_epik_Ionization_Penalty_Charging>
  0.0013

> <r_epik_Ionization_Penalty_Neutral>
  0.0000

> <r_epik_State_Penalty>
  0.0000

> <r_lp_Energy>
66.360789

> <r_lp_tautomer_probability>
1

> <r_m_Percent_Extrap>
0

> <r_m_predicted_activity1>
7.21082880219356

> <r_m_predicted_activity10>
7.6897551846473

> <r_m_predicted_activity11>
7.6802234812673

> <r_m_predicted_activity12>
7.67107095006539

> <r_m_predicted_activity13>
7.66197230342693

> <r_m_predicted_activity14>
7.67010718106448

> <r_m_predicted_activity2>
7.566319014247

> <r_m_predicted_activity3>
7.7015487894973

> <r_m_predicted_activity4>
7.76407778798404

> <r_m_predicted_activity5>
7.66803083816062

> <r_m_predicted_activity6>
7.76344268456286

> <r_m_predicted_activity7>
7.62554154214477

> <r_m_predicted_activity8>
7.61130778043828

> <r_m_predicted_activity9>
7.73284777093282

> <r_phase_Similarity_to_Reference>
1

> <s_epik_cmdline>
J2VwaWtfcHl0aG9uJywgJy1waCcsICc3LjAnLCAnLXRuJywgJzgnLCAnLW1hJywgJzUwMCcsICctaW1hZScsICc8aW5maWxlLm1hZT4nLCAnLW9tYWUnLCAnPG91dGZpbGUubWFlPic=

> <s_epik_input>
W0NIMl0xW0NIMl1bTkhdW0NIMl1bQ0gyXVtDSF0xYyhbY0hdW2NIXTIpW2NIXVtjSF1jMi1jKFtjSF1jKFtjSF0zKUMoPU8pW09IXSljKGMzNClbY0hdW2NIXWMoW2NIXTQpLWM1W2NIXVtjSF1jKEMoRikoRilGKVtjSF1bY0hdNQ==

> <s_lp_Force_Field>
S-OPLS

> <s_lp_Variant>
1-1

> <s_m_Source_File>
compounds-paper5-aligned-activity-fixed-definitive.sdf

> <s_m_Source_Path>
/data/matteo/P2Y14-antagonists-piperidineDerivatives-Wen2023/20250303-Field-Based-QSAR/paper5-definitive

> <s_m_entry_id>
1

> <s_m_entry_name>
compounds-paper5-aligned-activity-fixed-definitive.1

> <s_m_job_name>
align_ligands_1

> <s_m_subgroup_title>
compounds-paper5-aligned-activity-fixed-definitive

> <s_m_subgroupid>
compounds-paper5-aligned-activity-fixed-definitive

> <s_phase_Alignment_Method>


> <s_phase_Alignment_Reason>


> <s_phase_Core_SMARTS>


$$$$
2
                    3D
 Schrodinger Suite 2023-2.
 60 65  0  0  1  0            999 V2000
    7.9085    3.2056    1.0561 O   0  5  0  0  0  0
    6.6709    3.2982    1.2160 C   0  0  0  0  0  0
    5.7956    2.1468    0.7994 C   0  0  0  0  0  0
    4.3942    2.2207    0.9480 C   0  0  0  0  0  0
    3.5749    1.1453    0.5531 C   0  0  0  0  0  0
    2.1760    1.2475    0.7049 C   0  0  0  0  0  0
    1.3180    0.1952    0.3151 C   0  0  0  0  0  0
   -0.1466    0.3041    0.4751 C   0  0  0  0  0  0
   -0.8173    1.5244    0.2326 C   0  0  0  0  0  0
   -2.2151    1.6242    0.3732 C   0  0  0  0  0  0
   -2.9758    0.5030    0.7618 C   0  0  0  0  0  0
   -4.4854    0.6301    0.9031 C   0  0  0  0  0  0
   -5.0607   -0.5409    1.1790 F   0  0  0  0  0  0
   -4.7690    1.4842    1.8860 F   0  0  0  0  0  0
   -5.0029    1.0957   -0.2336 F   0  0  0  0  0  0
   -2.3156   -0.7180    1.0142 C   0  0  0  0  0  0
   -0.9179   -0.8127    0.8704 C   0  0  0  0  0  0
    1.8999   -0.9657   -0.2388 C   0  0  0  0  0  0
    3.2938   -1.0777   -0.3943 C   0  0  0  0  0  0
    4.1521   -0.0281    0.0060 C   0  0  0  0  0  0
    5.5621   -0.1228   -0.1373 C   0  0  0  0  0  0
    6.2290   -1.3207   -0.6782 C   0  0  0  0  0  0
    6.8941   -1.2724   -1.9209 C   0  0  0  0  0  0
    7.5245   -2.4165   -2.4471 C   0  0  0  0  0  0
    7.5029   -3.6377   -1.7359 C   0  0  0  0  0  0
    6.8530   -3.6824   -0.4841 C   0  0  0  0  0  0
    6.2248   -2.5362    0.0384 C   0  0  0  0  0  0
    8.1704   -4.9052   -2.2687 C   0  0  2  0  0  0
    9.7050   -4.9456   -2.0815 C   0  0  2  0  0  0
   10.2465   -4.4143   -3.4045 C   0  0  0  0  0  0
    9.4805   -5.4521   -4.2148 C   0  0  2  0  0  0
    8.0229   -5.1864   -3.7843 C   0  0  0  0  0  0
    9.9303   -6.7297   -3.6179 N   0  3  0  0  0  0
   10.1550   -6.4162   -2.1881 C   0  0  0  0  0  0
    6.3620    0.9727    0.2552 C   0  0  0  0  0  0
    6.1366    4.3161    1.7108 O   0  0  0  0  0  0
    3.9378    3.1080    1.3632 H   0  0  0  0  0  0
    1.7574    2.1468    1.1333 H   0  0  0  0  0  0
   -0.2605    2.3970   -0.0765 H   0  0  0  0  0  0
   -2.7056    2.5666    0.1783 H   0  0  0  0  0  0
   -2.8723   -1.5916    1.3194 H   0  0  0  0  0  0
   -0.4373   -1.7586    1.0732 H   0  0  0  0  0  0
    1.2743   -1.7850   -0.5611 H   0  0  0  0  0  0
    3.6862   -1.9833   -0.8315 H   0  0  0  0  0  0
    6.9158   -0.3487   -2.4812 H   0  0  0  0  0  0
    8.0167   -2.3367   -3.4035 H   0  0  0  0  0  0
    6.8305   -4.5997    0.0856 H   0  0  0  0  0  0
    5.7288   -2.5920    0.9966 H   0  0  0  0  0  0
    7.7250   -5.7393   -1.7236 H   0  0  0  0  0  0
   10.0643   -4.4456   -1.1813 H   0  0  0  0  0  0
    9.9619   -3.3860   -3.6239 H   0  0  0  0  0  0
   11.3305   -4.5063   -3.4970 H   0  0  0  0  0  0
    9.6375   -5.4076   -5.2928 H   0  0  0  0  0  0
    7.3691   -6.0362   -3.9848 H   0  0  0  0  0  0
    7.6209   -4.3351   -4.3327 H   0  0  0  0  0  0
    9.2256   -7.4439   -3.7334 H   0  0  0  0  0  0
   11.2155   -6.5217   -1.9559 H   0  0  0  0  0  0
    9.5958   -7.0864   -1.5344 H   0  0  0  0  0  0
    7.4338    0.8968    0.1396 H   0  0  0  0  0  0
   10.8006   -7.0230   -4.0386 H   0  0  0  0  0  0
  1  2  1  0  0  0
  2  3  1  0  0  0
  2 36  2  0  0  0
  3 35  1  0  0  0
  3  4  2  0  0  0
  4  5  1  0  0  0
  4 37  1  0  0  0
  5 20  1  0  0  0
  5  6  2  0  0  0
  6  7  1  0  0  0
  6 38  1  0  0  0
  7  8  1  0  0  0
  7 18  2  0  0  0
  8 17  1  0  0  0
  8  9  2  0  0  0
  9 10  1  0  0  0
  9 39  1  0  0  0
 10 11  2  0  0  0
 10 40  1  0  0  0
 11 12  1  0  0  0
 11 16  1  0  0  0
 12 13  1  0  0  0
 12 14  1  0  0  0
 12 15  1  0  0  0
 16 17  2  0  0  0
 16 41  1  0  0  0
 17 42  1  0  0  0
 18 19  1  0  0  0
 18 43  1  0  0  0
 19 20  2  0  0  0
 19 44  1  0  0  0
 20 21  1  0  0  0
 21 22  1  0  0  0
 21 35  2  0  0  0
 22 27  1  0  0  0
 22 23  2  0  0  0
 23 24  1  0  0  0
 23 45  1  0  0  0
 24 25  2  0  0  0
 24 46  1  0  0  0
 25 26  1  0  0  0
 25 28  1  0  0  0
 26 27  2  0  0  0
 26 47  1  0  0  0
 27 48  1  0  0  0
 28 32  1  0  0  0
 28 29  1  0  0  0
 28 49  1  0  0  0
 29 34  1  0  0  0
 29 30  1  0  0  0
 29 50  1  0  0  0
 30 31  1  0  0  0
 30 51  1  0  0  0
 30 52  1  0  0  0
 31 32  1  0  0  0
 31 33  1  0  0  0
 31 53  1  0  0  0
 32 54  1  0  0  0
 32 55  1  0  0  0
 33 34  1  0  0  0
 33 56  1  0  0  0
 33 60  1  0  0  0
 34 57  1  0  0  0
 34 58  1  0  0  0
 35 59  1  0  0  0
M  CHG  2   1  -1  33   1
M  END
> <i_epik_Tot_Q>
0

> <i_epik_Tot_abs_Q>
2

> <i_lp_mmshare_version>
62121

> <i_m_Source_File_Index>
2

> <i_phase_Input_Structure_Number>
2

> <i_phase_Reference_Structure>
1

> <i_phase_Structure_Number>
2

> <i_f3d_flags>
0

> <b_lp_Chiralities_Consistent>
1

> <b_m_subgroup_collapsed>
0

> <r_canvas_IC50_(nM)_at_hP2Y14R>
3.11

> <r_canvas_pIC50>
8.50723961097316

> <r_epik_Charging_Adjusted_Penalty>
0.00149795190922281

> <r_epik_Ionization_Penalty>
  0.0008

> <r_epik_Ionization_Penalty_Charging>
  0.0008

> <r_epik_Ionization_Penalty_Neutral>
  0.0000

> <r_epik_State_Penalty>
  0.0007

> <r_lp_Energy>
85.747221

> <r_m_Percent_Extrap>
0.00320900944538629

> <r_m_predicted_activity1>
7.31812157355091

> <r_m_predicted_activity10>
7.26013108611532

> <r_m_predicted_activity11>
7.22141830346437

> <r_m_predicted_activity12>
7.25761463913103

> <r_m_predicted_activity13>
7.27067660722226

> <r_m_predicted_activity14>
7.29949792851316

> <r_m_predicted_activity2>
7.64573827603869

> <r_m_predicted_activity3>
7.68368027807037

> <r_m_predicted_activity4>
7.61588049290903

> <r_m_predicted_activity5>
7.43806170325346

> <r_m_predicted_activity6>
7.44156917675636

> <r_m_predicted_activity7>
7.32789877071481

> <r_m_predicted_activity8>
7.28839718785239

> <r_m_predicted_activity9>
7.34134659117597

> <r_phase_Similarity_to_Reference>
0.929445836234506

> <s_epik_cmdline>
J2VwaWtfcHl0aG9uJywgJy1waCcsICc3LjAnLCAnLXRuJywgJzgnLCAnLW1hJywgJzUwMCcsICctaW1hZScsICc8aW5maWxlLm1hZT4nLCAnLW9tYWUnLCAnPG91dGZpbGUubWFlPic=

> <s_epik_input>
W0NIMl0xW05IXVtDQEhdKFtDSDJdMilbQ0gyXVtDQEBIXShbQ0BASF0xMiljKFtjSF1bY0hdMylbY0hdW2NIXWMzLWMoW2NIXWMoW2NIXTQpQyg9TylbT0hdKWMoYzQ1KVtjSF1bY0hdYyhbY0hdNSktYzZbY0hdW2NIXWMoQyhGKShGKUYpW2NIXVtjSF02

> <s_lp_Force_Field>
S-OPLS

> <s_lp_Variant>
2-1

> <s_m_Source_File>
compounds-paper5-aligned-activity-fixed-definitive.sdf

> <s_m_Source_Path>
/data/matteo/P2Y14-antagonists-piperidineDerivatives-Wen2023/20250303-Field-Based-QSAR/paper5-definitive

> <s_m_entry_id>
2

> <s_m_entry_name>
compounds-paper5-aligned-activity-fixed-definitive.2

> <s_m_job_name>
align_ligands_1

> <s_m_subgroup_title>
compounds-paper5-aligned-activity-fixed-definitive

> <s_m_subgroupid>
compounds-paper5-aligned-activity-fixed-definitive

> <s_phase_Alignment_Method>
flexible least-squares core

> <s_phase_Alignment_Reason>
open ring in core mapping

> <s_phase_Core_SMARTS>
a1aaaaa1-a(a2)aaa(a23)a(aaa3)-a4aaa(aa4)A5AA[A]AA5

$$$$
4
                    3D
 Schrodinger Suite 2023-2.
 59 63  0  0  1  0            999 V2000
    7.8718    3.2234    1.1339 O   0  0  0  0  0  0
    6.6335    3.3065    1.2938 C   0  0  0  0  0  0
    5.7637    2.1649    0.8405 C   0  0  0  0  0  0
    4.3632    2.2211    1.0016 C   0  0  0  0  0  0
    3.5501    1.1548    0.5712 C   0  0  0  0  0  0
    2.1530    1.1955    0.7861 N   0  0  0  0  0  0
    1.4605    2.3564    0.7050 N   0  0  0  0  0  0
    0.2265    2.0905    0.9949 N   0  0  0  0  0  0
    0.0896    0.7310    1.2894 C   0  0  0  0  0  0
   -1.1880    0.1435    1.7088 C   0  0  0  0  0  0
   -2.4023    0.8509    1.5616 C   0  0  0  0  0  0
   -3.6190    0.2783    1.9808 C   0  0  0  0  0  0
   -3.6428   -1.0124    2.5506 C   0  0  0  0  0  0
   -4.9544   -1.6246    3.0197 C   0  0  0  0  0  0
   -4.9181   -2.9545    2.9286 F   0  0  0  0  0  0
   -5.1659   -1.2875    4.2914 F   0  0  0  0  0  0
   -5.9750   -1.1839    2.2832 F   0  0  0  0  0  0
   -2.4315   -1.7200    2.7003 C   0  0  0  0  0  0
   -1.2160   -1.1482    2.2786 C   0  0  0  0  0  0
    1.3206    0.1524    1.1396 C   0  0  0  0  0  0
    4.1320    0.0089   -0.0274 C   0  0  0  0  0  0
    5.5422   -0.0679   -0.1843 C   0  0  0  0  0  0
    6.2189   -1.2368   -0.7759 C   0  0  0  0  0  0
    6.9102   -1.1235   -1.9992 C   0  0  0  0  0  0
    7.5479   -2.2386   -2.5763 C   0  0  0  0  0  0
    7.5223   -3.4998   -1.9335 C   0  0  0  0  0  0
    8.1668   -4.7603   -2.5405 C   0  0  0  0  0  0
    9.1677   -4.5137   -3.6951 C   0  0  0  0  0  0
    9.5605   -5.8453   -4.3903 C   0  0  0  0  0  0
   10.1128   -6.8814   -3.4645 N   0  3  0  0  0  0
    9.5748   -6.8461   -2.0682 C   0  0  0  0  0  0
    9.1681   -5.4314   -1.5741 C   0  0  0  0  0  0
    6.8300   -3.6077   -0.7058 C   0  0  0  0  0  0
    6.1956   -2.4906   -0.1313 C   0  0  0  0  0  0
    6.3353    1.0178    0.2468 C   0  0  0  0  0  0
    6.0939    4.3069    1.8173 O   0  5  0  0  0  0
    3.9097    3.0831    1.4698 H   0  0  0  0  0  0
   -2.4116    1.8406    1.1286 H   0  0  0  0  0  0
   -4.5347    0.8391    1.8657 H   0  0  0  0  0  0
   -2.4272   -2.7043    3.1447 H   0  0  0  0  0  0
   -0.3017   -1.7081    2.4093 H   0  0  0  0  0  0
    1.6662   -0.8614    1.2768 H   0  0  0  0  0  0
    3.5128   -0.8145   -0.3522 H   0  0  0  0  0  0
    6.9449   -0.1711   -2.5085 H   0  0  0  0  0  0
    8.0538   -2.0959   -3.5177 H   0  0  0  0  0  0
    7.3709   -5.4448   -2.8378 H   0  0  0  0  0  0
    8.6889   -3.9123   -4.4671 H   0  0  0  0  0  0
   10.0482   -3.9465   -3.3871 H   0  0  0  0  0  0
    8.6722   -6.2701   -4.8593 H   0  0  0  0  0  0
   10.2765   -5.6658   -5.1926 H   0  0  0  0  0  0
    9.9948   -7.8029   -3.8611 H   0  0  0  0  0  0
    8.6942   -7.4891   -2.0447 H   0  0  0  0  0  0
   10.3031   -7.2966   -1.3936 H   0  0  0  0  0  0
   10.0466   -4.8125   -1.3816 H   0  0  0  0  0  0
    8.7080   -5.5694   -0.5965 H   0  0  0  0  0  0
    6.7660   -4.5574   -0.1964 H   0  0  0  0  0  0
    5.6725   -2.6010    0.8076 H   0  0  0  0  0  0
    7.4072    0.9553    0.1225 H   0  0  0  0  0  0
   11.1028   -6.6947   -3.3903 H   0  0  0  0  0  0
  1  2  2  0  0  0
  2  3  1  0  0  0
  2 36  1  0  0  0
  3 35  1  0  0  0
  3  4  2  0  0  0
  4  5  1  0  0  0
  4 37  1  0  0  0
  5  6  1  0  0  0
  5 21  2  0  0  0
  6 20  1  0  0  0
  6  7  1  0  0  0
  7  8  2  0  0  0
  8  9  1  0  0  0
  9 10  1  0  0  0
  9 20  2  0  0  0
 10 19  1  0  0  0
 10 11  2  0  0  0
 11 12  1  0  0  0
 11 38  1  0  0  0
 12 13  2  0  0  0
 12 39  1  0  0  0
 13 14  1  0  0  0
 13 18  1  0  0  0
 14 15  1  0  0  0
 14 16  1  0  0  0
 14 17  1  0  0  0
 18 19  2  0  0  0
 18 40  1  0  0  0
 19 41  1  0  0  0
 20 42  1  0  0  0
 21 22  1  0  0  0
 21 43  1  0  0  0
 22 23  1  0  0  0
 22 35  2  0  0  0
 23 34  1  0  0  0
 23 24  2  0  0  0
 24 25  1  0  0  0
 24 44  1  0  0  0
 25 26  2  0  0  0
 25 45  1  0  0  0
 26 27  1  0  0  0
 26 33  1  0  0  0
 27 32  1  0  0  0
 27 28  1  0  0  0
 27 46  1  0  0  0
 28 29  1  0  0  0
 28 47  1  0  0  0
 28 48  1  0  0  0
 29 30  1  0  0  0
 29 49  1  0  0  0
 29 50  1  0  0  0
 30 31  1  0  0  0
 30 51  1  0  0  0
 30 59  1  0  0  0
 31 32  1  0  0  0
 31 52  1  0  0  0
 31 53  1  0  0  0
 32 54  1  0  0  0
 32 55  1  0  0  0
 33 34  2  0  0  0
 33 56  1  0  0  0
 34 57  1  0  0  0
 35 58  1  0  0  0
M  CHG  2  30   1  36  -1
M  END
> <i_epik_Tot_Q>
0

> <i_epik_Tot_abs_Q>
2

> <i_lp_mmshare_version>
62121

> <i_m_Source_File_Index>
3

> <i_phase_Input_Structure_Number>
3

> <i_phase_Reference_Structure>
1

> <i_phase_Structure_Number>
3

> <i_f3d_flags>
0

> <b_lp_Chiralities_Consistent>
1

> <b_m_subgroup_collapsed>
0

> <r_canvas_IC50_(nM)_at_hP2Y14R>
31.7

> <r_canvas_pIC50>
7.49894073778225

> <r_epik_Charging_Adjusted_Penalty>
0.00131429387641412

> <r_epik_Ionization_Penalty>
  0.0008

> <r_epik_Ionization_Penalty_Charging>
  0.0008

> <r_epik_Ionization_Penalty_Neutral>
  0.0000

> <r_epik_State_Penalty>
  0.0006

> <r_lp_Energy>
57.309566

> <r_lp_tautomer_probability>
1

> <r_m_Percent_Extrap>
0.0498910147735529

> <r_m_predicted_activity1>
6.25992988799292

> <r_m_predicted_activity10>
6.77731563087039

> <r_m_predicted_activity11>
6.7816078826663

> <r_m_predicted_activity12>
6.90466887349158

> <r_m_predicted_activity13>
6.97970942159928

> <r_m_predicted_activity14>
7.05321185305506

> <r_m_predicted_activity2>
6.84924235487986

> <r_m_predicted_activity3>
6.80808033556588

> <r_m_predicted_activity4>
6.94148277068318

> <r_m_predicted_activity5>
6.76497036849127

> <r_m_predicted_activity6>
6.77747121615728

> <r_m_predicted_activity7>
6.62170104520204

> <r_m_predicted_activity8>
6.65901705416086

> <r_m_predicted_activity9>
6.73348686884546

> <r_phase_Similarity_to_Reference>
0.765673753463132

> <s_epik_cmdline>
J2VwaWtfcHl0aG9uJywgJy1waCcsICc3LjAnLCAnLXRuJywgJzgnLCAnLW1hJywgJzUwMCcsICctaW1hZScsICc8aW5maWxlLm1hZT4nLCAnLW9tYWUnLCAnPG91dGZpbGUubWFlPic=

> <s_epik_input>
RkMoRikoRiljKFtjSF1bY0hdMSlbY0hdW2NIXWMxLWMoW2NIXTIpbm5uMi1jKFtjSF1jM0MoPU8pW09IXSlbY0hdYyhbY0hdMyktYzRbY0hdW2NIXWMoW2NIXVtjSF00KVtDSF01W0NIMl1bQ0gyXVtOSF1bQ0gyXVtDSDJdNQ==

> <s_lp_Force_Field>
S-OPLS

> <s_lp_Variant>
4-1

> <s_m_Source_File>
compounds-paper5-aligned-activity-fixed-definitive.sdf

> <s_m_Source_Path>
/data/matteo/P2Y14-antagonists-piperidineDerivatives-Wen2023/20250303-Field-Based-QSAR/paper5-definitive

> <s_m_entry_id>
3

> <s_m_entry_name>
compounds-paper5-aligned-activity-fixed-definitive.3

> <s_m_job_name>
align_ligands_1

> <s_m_subgroup_title>
compounds-paper5-aligned-activity-fixed-definitive

> <s_m_subgroupid>
compounds-paper5-aligned-activity-fixed-definitive

> <s_phase_Alignment_Method>
snapped core

> <s_phase_Alignment_Reason>


> <s_phase_Core_SMARTS>
a1aaaaa1-a2aaa(aa2)A3AA[A]AA3

$$$$
7
                    3D
 Schrodinger Suite 2023-2.
 49 53  0  0  1  0            999 V2000
    6.0939    4.3069    1.8173 O   0  5  0  0  0  0
    6.6335    3.3065    1.2938 C   0  0  0  0  0  0
    5.7637    2.1649    0.8405 C   0  0  0  0  0  0
    4.3632    2.2211    1.0016 C   0  0  0  0  0  0
    3.5501    1.1548    0.5712 C   0  0  0  0  0  0
    2.1524    1.2383    0.7416 C   0  0  0  0  0  0
    1.3001    0.1930    0.3226 C   0  0  0  0  0  0
   -0.1610    0.2796    0.5158 C   0  0  0  0  0  0
   -0.9062   -0.8510    0.9207 C   0  0  0  0  0  0
   -2.2992   -0.7723    1.1122 C   0  0  0  0  0  0
   -2.9805    0.4435    0.8954 C   0  0  0  0  0  0
   -4.4843    0.5364    1.1094 C   0  0  0  0  0  0
   -5.0261    1.4324    0.2838 F   0  0  0  0  0  0
   -4.7261    0.9091    2.3654 F   0  0  0  0  0  0
   -5.0718   -0.6406    0.8904 F   0  0  0  0  0  0
   -2.2454    1.5776    0.4941 C   0  0  0  0  0  0
   -0.8521    1.4946    0.3065 C   0  0  0  0  0  0
    1.8847   -0.9390   -0.2850 C   0  0  0  0  0  0
    3.2777   -1.0307   -0.4622 C   0  0  0  0  0  0
    4.1320    0.0089   -0.0274 C   0  0  0  0  0  0
    5.5422   -0.0679   -0.1843 C   0  0  0  0  0  0
    6.2189   -1.2368   -0.7759 C   0  0  0  0  0  0
    6.9102   -1.1235   -1.9992 C   0  0  0  0  0  0
    7.5479   -2.2386   -2.5763 C   0  0  0  0  0  0
    7.5223   -3.4998   -1.9335 C   0  0  0  0  0  0
    8.1776   -4.6196   -2.5139 N   0  0  0  0  0  0
    7.9620   -5.8787   -2.0503 N   0  0  0  0  0  0
    8.6841   -6.6900   -2.7564 N   0  0  0  0  0  0
    9.3951   -5.9611   -3.7041 C   0  0  0  0  0  0
    9.0834   -4.6400   -3.5610 C   0  0  0  0  0  0
    6.8300   -3.6077   -0.7058 C   0  0  0  0  0  0
    6.1956   -2.4906   -0.1313 C   0  0  0  0  0  0
    6.3353    1.0178    0.2468 C   0  0  0  0  0  0
    7.8718    3.2234    1.1339 O   0  0  0  0  0  0
    3.9027    3.0872    1.4554 H   0  0  0  0  0  0
    1.7301    2.1150    1.2113 H   0  0  0  0  0  0
   -0.4078   -1.7926    1.0992 H   0  0  0  0  0  0
   -2.8412   -1.6505    1.4308 H   0  0  0  0  0  0
   -2.7469    2.5201    0.3309 H   0  0  0  0  0  0
   -0.3136    2.3772   -0.0064 H   0  0  0  0  0  0
    1.2614   -1.7512   -0.6290 H   0  0  0  0  0  0
    3.6722   -1.9145   -0.9400 H   0  0  0  0  0  0
    6.9442   -0.1715   -2.5088 H   0  0  0  0  0  0
    8.0568   -2.1082   -3.5191 H   0  0  0  0  0  0
   10.0660   -6.4416   -4.4010 H   0  0  0  0  0  0
    9.4201   -3.7617   -4.0902 H   0  0  0  0  0  0
    6.7849   -4.5484   -0.1772 H   0  0  0  0  0  0
    5.6782   -2.6001    0.8108 H   0  0  0  0  0  0
    7.4070    0.9548    0.1222 H   0  0  0  0  0  0
  1  2  1  0  0  0
  2  3  1  0  0  0
  2 34  2  0  0  0
  3 33  1  0  0  0
  3  4  2  0  0  0
  4  5  1  0  0  0
  4 35  1  0  0  0
  5 20  1  0  0  0
  5  6  2  0  0  0
  6  7  1  0  0  0
  6 36  1  0  0  0
  7  8  1  0  0  0
  7 18  2  0  0  0
  8 17  1  0  0  0
  8  9  2  0  0  0
  9 10  1  0  0  0
  9 37  1  0  0  0
 10 11  2  0  0  0
 10 38  1  0  0  0
 11 12  1  0  0  0
 11 16  1  0  0  0
 12 13  1  0  0  0
 12 14  1  0  0  0
 12 15  1  0  0  0
 16 17  2  0  0  0
 16 39  1  0  0  0
 17 40  1  0  0  0
 18 19  1  0  0  0
 18 41  1  0  0  0
 19 20  2  0  0  0
 19 42  1  0  0  0
 20 21  1  0  0  0
 21 22  1  0  0  0
 21 33  2  0  0  0
 22 32  1  0  0  0
 22 23  2  0  0  0
 23 24  1  0  0  0
 23 43  1  0  0  0
 24 25  2  0  0  0
 24 44  1  0  0  0
 25 26  1  0  0  0
 25 31  1  0  0  0
 26 30  1  0  0  0
 26 27  1  0  0  0
 27 28  2  0  0  0
 28 29  1  0  0  0
 29 30  2  0  0  0
 29 45  1  0  0  0
 30 46  1  0  0  0
 31 32  2  0  0  0
 31 47  1  0  0  0
 32 48  1  0  0  0
 33 49  1  0  0  0
M  CHG  1   1  -1
M  END
> <i_epik_Tot_Q>
-1

> <i_epik_Tot_abs_Q>
1

> <i_lp_mmshare_version>
62121

> <i_m_Source_File_Index>
4

> <i_phase_Input_Structure_Number>
4

> <i_phase_Reference_Structure>
1

> <i_phase_Structure_Number>
4

> <i_f3d_flags>
0

> <b_lp_Chiralities_Consistent>
1

> <b_m_subgroup_collapsed>
0

> <r_canvas_IC50_(nM)_at_hP2Y14R>
24.4

> <r_canvas_pIC50>
7.61261017366127

> <r_epik_Charging_Adjusted_Penalty>
0.00118161601170164

> <r_epik_Ionization_Penalty>
  0.0006

> <r_epik_Ionization_Penalty_Charging>
  0.0006

> <r_epik_Ionization_Penalty_Neutral>
  0.0000

> <r_epik_State_Penalty>
  0.0006

> <r_lp_Energy>
59.804236

> <r_lp_tautomer_probability>
1

> <r_m_Percent_Extrap>
0.00550980867038024

> <r_m_predicted_activity1>
6.81219586074961

> <r_m_predicted_activity10>
7.38944098524027

> <r_m_predicted_activity11>
7.27204771049564

> <r_m_predicted_activity12>
7.22899788449217

> <r_m_predicted_activity13>
7.10806834008133

> <r_m_predicted_activity14>
7.0186639231993

> <r_m_predicted_activity2>
6.71488610141419

> <r_m_predicted_activity3>
7.29927886988184

> <r_m_predicted_activity4>
7.31844897512787

> <r_m_predicted_activity5>
7.34174689183596

> <r_m_predicted_activity6>
7.46057782379881

> <r_m_predicted_activity7>
7.44653991714635

> <r_m_predicted_activity8>
7.45216058993886

> <r_m_predicted_activity9>
7.42312398959423

> <r_phase_Similarity_to_Reference>
0.877328938752317

> <s_epik_cmdline>
J2VwaWtfcHl0aG9uJywgJy1waCcsICc3LjAnLCAnLXRuJywgJzgnLCAnLW1hJywgJzUwMCcsICctaW1hZScsICc8aW5maWxlLm1hZT4nLCAnLW9tYWUnLCAnPG91dGZpbGUubWFlPic=

> <s_epik_input>
W2NIXTFbY0hdbm5uMS1jKFtjSF1bY0hdMilbY0hdW2NIXWMyLWMoW2NIXWMoW2NIXTMpQyg9TylbT0hdKWMoYzM0KVtjSF1bY0hdYyhbY0hdNCktYzVbY0hdW2NIXWMoQyhGKShGKUYpW2NIXVtjSF01

> <s_lp_Force_Field>
S-OPLS

> <s_lp_Variant>
7-1

> <s_m_Source_File>
compounds-paper5-aligned-activity-fixed-definitive.sdf

> <s_m_Source_Path>
/data/matteo/P2Y14-antagonists-piperidineDerivatives-Wen2023/20250303-Field-Based-QSAR/paper5-definitive

> <s_m_entry_id>
4

> <s_m_entry_name>
compounds-paper5-aligned-activity-fixed-definitive.4

> <s_m_job_name>
align_ligands_1

> <s_m_subgroup_title>
compounds-paper5-aligned-activity-fixed-definitive

> <s_m_subgroupid>
compounds-paper5-aligned-activity-fixed-definitive

> <s_phase_Alignment_Method>
snapped core

> <s_phase_Alignment_Reason>


> <s_phase_Core_SMARTS>
a1aaaaa1-a(a2)aaa(a23)a(aaa3)-a4aaaaa4

$$$$
8
                    3D
 Schrodinger Suite 2023-2.
 56 60  0  0  1  0            999 V2000
    6.0939    4.3069    1.8173 O   0  5  0  0  0  0
    6.6335    3.3065    1.2938 C   0  0  0  0  0  0
    5.7637    2.1649    0.8405 C   0  0  0  0  0  0
    4.3632    2.2211    1.0016 C   0  0  0  0  0  0
    3.5501    1.1548    0.5712 C   0  0  0  0  0  0
    2.1524    1.2383    0.7416 C   0  0  0  0  0  0
    1.3001    0.1930    0.3226 C   0  0  0  0  0  0
   -0.1610    0.2796    0.5158 C   0  0  0  0  0  0
   -0.9062   -0.8510    0.9207 C   0  0  0  0  0  0
   -2.2992   -0.7723    1.1122 C   0  0  0  0  0  0
   -2.9805    0.4435    0.8954 C   0  0  0  0  0  0
   -4.4843    0.5364    1.1094 C   0  0  0  0  0  0
   -5.0261    1.4324    0.2838 F   0  0  0  0  0  0
   -4.7261    0.9091    2.3654 F   0  0  0  0  0  0
   -5.0718   -0.6406    0.8904 F   0  0  0  0  0  0
   -2.2454    1.5776    0.4941 C   0  0  0  0  0  0
   -0.8521    1.4946    0.3065 C   0  0  0  0  0  0
    1.8847   -0.9390   -0.2850 C   0  0  0  0  0  0
    3.2777   -1.0307   -0.4622 C   0  0  0  0  0  0
    4.1320    0.0089   -0.0274 C   0  0  0  0  0  0
    5.5422   -0.0679   -0.1843 C   0  0  0  0  0  0
    6.2189   -1.2368   -0.7759 C   0  0  0  0  0  0
    6.1956   -2.4906   -0.1313 C   0  0  0  0  0  0
    6.8300   -3.6077   -0.7058 C   0  0  0  0  0  0
    7.5223   -3.4998   -1.9335 C   0  0  0  0  0  0
    8.1861   -4.6575   -2.5257 N   0  0  0  0  0  0
    8.0080   -5.0313   -3.7991 N   0  0  0  0  0  0
    8.7897   -6.1546   -3.9938 N   0  0  0  0  0  0
    9.4090   -6.4286   -2.8590 C   0  0  0  0  0  0
   10.3461   -7.5895   -2.7036 C   0  0  0  0  0  0
   10.3065   -8.0776   -1.2858 C   0  0  0  0  0  0
    9.0233   -8.4772   -0.9725 O   0  0  0  0  0  0
    9.0582   -5.5026   -1.8883 C   0  0  0  0  0  0
    7.5479   -2.2386   -2.5763 C   0  0  0  0  0  0
    6.9102   -1.1235   -1.9992 C   0  0  0  0  0  0
    6.3353    1.0178    0.2468 C   0  0  0  0  0  0
    7.8718    3.2234    1.1339 O   0  0  0  0  0  0
    3.9030    3.0872    1.4556 H   0  0  0  0  0  0
    1.7299    2.1152    1.2109 H   0  0  0  0  0  0
   -0.4078   -1.7926    1.0990 H   0  0  0  0  0  0
   -2.8409   -1.6508    1.4304 H   0  0  0  0  0  0
   -2.7466    2.5203    0.3310 H   0  0  0  0  0  0
   -0.3135    2.3773   -0.0062 H   0  0  0  0  0  0
    1.2615   -1.7514   -0.6288 H   0  0  0  0  0  0
    3.6723   -1.9146   -0.9396 H   0  0  0  0  0  0
    5.6781   -2.6002    0.8107 H   0  0  0  0  0  0
    6.7869   -4.5487   -0.1775 H   0  0  0  0  0  0
   10.0423   -8.3939   -3.3734 H   0  0  0  0  0  0
   11.3596   -7.2739   -2.9510 H   0  0  0  0  0  0
   10.9875   -8.9212   -1.1728 H   0  0  0  0  0  0
   10.6103   -7.2732   -0.6159 H   0  0  0  0  0  0
    8.3577   -8.3795   -1.7124 H   0  0  0  0  0  0
    9.3329   -5.3686   -0.8503 H   0  0  0  0  0  0
    8.0573   -2.1086   -3.5189 H   0  0  0  0  0  0
    6.9437   -0.1716   -2.5091 H   0  0  0  0  0  0
    7.4070    0.9551    0.1224 H   0  0  0  0  0  0
  1  2  1  0  0  0
  2  3  1  0  0  0
  2 37  2  0  0  0
  3 36  1  0  0  0
  3  4  2  0  0  0
  4  5  1  0  0  0
  4 38  1  0  0  0
  5 20  1  0  0  0
  5  6  2  0  0  0
  6  7  1  0  0  0
  6 39  1  0  0  0
  7  8  1  0  0  0
  7 18  2  0  0  0
  8 17  1  0  0  0
  8  9  2  0  0  0
  9 10  1  0  0  0
  9 40  1  0  0  0
 10 11  2  0  0  0
 10 41  1  0  0  0
 11 12  1  0  0  0
 11 16  1  0  0  0
 12 13  1  0  0  0
 12 14  1  0  0  0
 12 15  1  0  0  0
 16 17  2  0  0  0
 16 42  1  0  0  0
 17 43  1  0  0  0
 18 19  1  0  0  0
 18 44  1  0  0  0
 19 20  2  0  0  0
 19 45  1  0  0  0
 20 21  1  0  0  0
 21 22  1  0  0  0
 21 36  2  0  0  0
 22 35  1  0  0  0
 22 23  2  0  0  0
 23 24  1  0  0  0
 23 46  1  0  0  0
 24 25  2  0  0  0
 24 47  1  0  0  0
 25 26  1  0  0  0
 25 34  1  0  0  0
 26 33  1  0  0  0
 26 27  1  0  0  0
 27 28  2  0  0  0
 28 29  1  0  0  0
 29 30  1  0  0  0
 29 33  2  0  0  0
 30 31  1  0  0  0
 30 48  1  0  0  0
 30 49  1  0  0  0
 31 32  1  0  0  0
 31 50  1  0  0  0
 31 51  1  0  0  0
 32 52  1  0  0  0
 33 53  1  0  0  0
 34 35  2  0  0  0
 34 54  1  0  0  0
 35 55  1  0  0  0
 36 56  1  0  0  0
M  CHG  1   1  -1
M  END
> <i_epik_Tot_Q>
-1

> <i_epik_Tot_abs_Q>
1

> <i_lp_mmshare_version>
62121

> <i_m_Source_File_Index>
5

> <i_phase_Input_Structure_Number>
5

> <i_phase_Reference_Structure>
1

> <i_phase_Structure_Number>
5

> <i_f3d_flags>
0

> <b_lp_Chiralities_Consistent>
1

> <b_m_subgroup_collapsed>
0

> <r_canvas_IC50_(nM)_at_hP2Y14R>
153

> <r_canvas_pIC50>
6.8153085691824

> <r_epik_Charging_Adjusted_Penalty>
0.00118161601170164

> <r_epik_Ionization_Penalty>
  0.0006

> <r_epik_Ionization_Penalty_Charging>
  0.0006

> <r_epik_Ionization_Penalty_Neutral>
  0.0000

> <r_epik_State_Penalty>
  0.0006

> <r_lp_Energy>
58.73292

> <r_lp_tautomer_probability>
1

> <r_m_Percent_Extrap>
0.0153184790506176

> <r_m_predicted_activity1>
6.79521330310747

> <r_m_predicted_activity10>
7.61171284426555

> <r_m_predicted_activity11>
7.6235075663613

> <r_m_predicted_activity12>
7.52541000628617

> <r_m_predicted_activity13>
7.39465287833648

> <r_m_predicted_activity14>
7.34976190307035

> <r_m_predicted_activity2>
6.39655504490403

> <r_m_predicted_activity3>
6.64187880122712

> <r_m_predicted_activity4>
6.90243377237293

> <r_m_predicted_activity5>
7.30215415076618

> <r_m_predicted_activity6>
7.51330988351235

> <r_m_predicted_activity7>
7.473176618436

> <r_m_predicted_activity8>
7.53169694076848

> <r_m_predicted_activity9>
7.5707572345751

> <r_phase_Similarity_to_Reference>
0.894698141050206

> <s_epik_cmdline>
J2VwaWtfcHl0aG9uJywgJy1waCcsICc3LjAnLCAnLXRuJywgJzgnLCAnLW1hJywgJzUwMCcsICctaW1hZScsICc8aW5maWxlLm1hZT4nLCAnLW9tYWUnLCAnPG91dGZpbGUubWFlPic=

> <s_epik_input>
RkMoRikoRiljKFtjSF1bY0hdMSlbY0hdW2NIXWMxLWMoW2NIXTIpW2NIXVtjSF1jKGMyMyljKFtjSF1jKFtjSF0zKUMoPU8pW09IXSktYzRbY0hdW2NIXWMoW2NIXVtjSF00KS1uNW5uYyhbY0hdNSlbQ0gyXVtDSDJdW09IXQ==

> <s_lp_Force_Field>
S-OPLS

> <s_lp_Variant>
8-1

> <s_m_Source_File>
compounds-paper5-aligned-activity-fixed-definitive.sdf

> <s_m_Source_Path>
/data/matteo/P2Y14-antagonists-piperidineDerivatives-Wen2023/20250303-Field-Based-QSAR/paper5-definitive

> <s_m_entry_id>
5

> <s_m_entry_name>
compounds-paper5-aligned-activity-fixed-definitive.5

> <s_m_job_name>
align_ligands_1

> <s_m_subgroup_title>
compounds-paper5-aligned-activity-fixed-definitive

> <s_m_subgroupid>
compounds-paper5-aligned-activity-fixed-definitive

> <s_phase_Alignment_Method>
snapped core

> <s_phase_Alignment_Reason>


> <s_phase_Core_SMARTS>
a1aaaaa1-a(a2)aaa(a23)a(aaa3)-a4aaaaa4

$$$$
9a
                    3D
 Schrodinger Suite 2023-2.
 59 63  0  0  1  0            999 V2000
    6.0939    4.3069    1.8173 O   0  5  0  0  0  0
    6.6335    3.3065    1.2938 C   0  0  0  0  0  0
    5.7637    2.1649    0.8405 C   0  0  0  0  0  0
    4.3632    2.2211    1.0016 C   0  0  0  0  0  0
    3.5501    1.1548    0.5712 C   0  0  0  0  0  0
    2.1524    1.2383    0.7416 C   0  0  0  0  0  0
    1.3001    0.1930    0.3226 C   0  0  0  0  0  0
   -0.1610    0.2796    0.5158 C   0  0  0  0  0  0
   -0.9062   -0.8510    0.9207 C   0  0  0  0  0  0
   -2.2992   -0.7723    1.1122 C   0  0  0  0  0  0
   -2.9805    0.4435    0.8954 C   0  0  0  0  0  0
   -4.4843    0.5364    1.1094 C   0  0  0  0  0  0
   -5.0261    1.4324    0.2838 F   0  0  0  0  0  0
   -4.7261    0.9091    2.3654 F   0  0  0  0  0  0
   -5.0718   -0.6406    0.8904 F   0  0  0  0  0  0
   -2.2454    1.5776    0.4941 C   0  0  0  0  0  0
   -0.8521    1.4946    0.3065 C   0  0  0  0  0  0
    1.8847   -0.9390   -0.2850 C   0  0  0  0  0  0
    3.2777   -1.0307   -0.4622 C   0  0  0  0  0  0
    4.1320    0.0089   -0.0274 C   0  0  0  0  0  0
    5.5422   -0.0679   -0.1843 C   0  0  0  0  0  0
    6.2189   -1.2368   -0.7759 C   0  0  0  0  0  0
    6.1956   -2.4906   -0.1313 C   0  0  0  0  0  0
    6.8300   -3.6077   -0.7058 C   0  0  0  0  0  0
    7.5223   -3.4998   -1.9335 C   0  0  0  0  0  0
    8.1820   -4.6586   -2.5283 N   0  0  0  0  0  0
    7.9988   -5.0317   -3.8011 N   0  0  0  0  0  0
    8.7779   -6.1563   -3.9988 N   0  0  0  0  0  0
    9.4006   -6.4317   -2.8663 C   0  0  0  0  0  0
   10.3363   -7.5942   -2.7144 C   0  0  0  0  0  0
   10.3009   -8.0825   -1.2966 C   0  0  0  0  0  0
   11.1618   -9.1520   -1.1569 O   0  0  0  0  0  0
    9.0549   -5.5052   -1.8941 C   0  0  0  0  0  0
    7.5479   -2.2386   -2.5763 C   0  0  0  0  0  0
    6.9102   -1.1235   -1.9992 C   0  0  0  0  0  0
    6.3353    1.0178    0.2468 C   0  0  0  0  0  0
    7.8718    3.2234    1.1339 O   0  0  0  0  0  0
   11.2332   -9.8344    0.4421 P   0  0  0  0  0  0
   12.2824  -11.0286    0.4787 O   0  5  0  0  0  0
   11.7001   -8.7079    1.4624 O   0  0  0  0  0  0
    9.7959  -10.3583    0.8756 O   0  5  0  0  0  0
    3.9085    3.0895    1.4592 H   0  0  0  0  0  0
    1.7276    2.1203    1.2020 H   0  0  0  0  0  0
   -0.4070   -1.7962    1.0886 H   0  0  0  0  0  0
   -2.8523   -1.6473    1.4272 H   0  0  0  0  0  0
   -2.7515    2.5195    0.3282 H   0  0  0  0  0  0
   -0.3104    2.3789   -0.0025 H   0  0  0  0  0  0
    1.2564   -1.7528   -0.6221 H   0  0  0  0  0  0
    3.7036   -1.9050   -0.9361 H   0  0  0  0  0  0
    5.6857   -2.6022    0.8165 H   0  0  0  0  0  0
    6.7922   -4.5672   -0.2071 H   0  0  0  0  0  0
   10.0288   -8.3979   -3.3834 H   0  0  0  0  0  0
   11.3495   -7.2803   -2.9654 H   0  0  0  0  0  0
   10.6085   -7.2788   -0.6277 H   0  0  0  0  0  0
    9.2877   -8.3964   -1.0456 H   0  0  0  0  0  0
    9.3335   -5.3720   -0.8571 H   0  0  0  0  0  0
    8.0615   -2.1235   -3.5217 H   0  0  0  0  0  0
    6.9562   -0.1698   -2.5083 H   0  0  0  0  0  0
    7.4075    0.9588    0.1140 H   0  0  0  0  0  0
  1  2  1  0  0  0
  2  3  1  0  0  0
  2 37  2  0  0  0
  3  4  2  0  0  0
  3 36  1  0  0  0
  4  5  1  0  0  0
  4 42  1  0  0  0
  5  6  2  0  0  0
  5 20  1  0  0  0
  6  7  1  0  0  0
  6 43  1  0  0  0
  7  8  1  0  0  0
  7 18  2  0  0  0
  8  9  2  0  0  0
  8 17  1  0  0  0
  9 10  1  0  0  0
  9 44  1  0  0  0
 10 11  2  0  0  0
 10 45  1  0  0  0
 11 12  1  0  0  0
 11 16  1  0  0  0
 12 13  1  0  0  0
 12 14  1  0  0  0
 12 15  1  0  0  0
 16 17  2  0  0  0
 16 46  1  0  0  0
 17 47  1  0  0  0
 18 19  1  0  0  0
 18 48  1  0  0  0
 19 20  2  0  0  0
 19 49  1  0  0  0
 20 21  1  0  0  0
 21 22  1  0  0  0
 21 36  2  0  0  0
 22 23  2  0  0  0
 22 35  1  0  0  0
 23 24  1  0  0  0
 23 50  1  0  0  0
 24 25  2  0  0  0
 24 51  1  0  0  0
 25 26  1  0  0  0
 25 34  1  0  0  0
 26 27  1  0  0  0
 26 33  1  0  0  0
 27 28  2  0  0  0
 28 29  1  0  0  0
 29 30  1  0  0  0
 29 33  2  0  0  0
 30 31  1  0  0  0
 30 52  1  0  0  0
 30 53  1  0  0  0
 31 32  1  0  0  0
 31 54  1  0  0  0
 31 55  1  0  0  0
 32 38  1  0  0  0
 33 56  1  0  0  0
 34 35  2  0  0  0
 34 57  1  0  0  0
 35 58  1  0  0  0
 36 59  1  0  0  0
 38 39  1  0  0  0
 38 40  2  0  0  0
 38 41  1  0  0  0
M  CHG  3   1  -1  39  -1  41  -1
M  END
> <i_epik_Tot_Q>
-1

> <i_epik_Tot_abs_Q>
1

> <i_lp_mmshare_version>
62121

> <i_m_Source_File_Index>
6

> <i_phase_Input_Structure_Number>
6

> <i_phase_Reference_Structure>
1

> <i_phase_Structure_Number>
6

> <i_f3d_flags>
0

> <b_lp_Chiralities_Consistent>
1

> <b_m_subgroup_collapsed>
0

> <r_canvas_IC50_(nM)_at_hP2Y14R>
1340

> <r_canvas_pIC50>
5.873

> <r_epik_Charging_Adjusted_Penalty>
0.00118161601170164

> <r_epik_Ionization_Penalty>
  0.0006

> <r_epik_Ionization_Penalty_Charging>
  0.0006

> <r_epik_Ionization_Penalty_Neutral>
  0.0000

> <r_epik_State_Penalty>
  0.0006

> <r_lp_Energy>
58.73292

> <r_lp_tautomer_probability>
1

> <r_m_Percent_Extrap>
0.0329983046742553

> <r_m_predicted_activity1>
6.79104471661973

> <r_m_predicted_activity10>
7.23306060876062

> <r_m_predicted_activity11>
7.212393779694

> <r_m_predicted_activity12>
7.08661645793574

> <r_m_predicted_activity13>
6.96781586111589

> <r_m_predicted_activity14>
6.94087987947561

> <r_m_predicted_activity2>
6.19231863281221

> <r_m_predicted_activity3>
6.37412496214337

> <r_m_predicted_activity4>
6.60936279787466

> <r_m_predicted_activity5>
6.92783156588471

> <r_m_predicted_activity6>
7.10013648975708

> <r_m_predicted_activity7>
7.06602748986509

> <r_m_predicted_activity8>
7.15936432494541

> <r_m_predicted_activity9>
7.16750573327559

> <r_phase_Similarity_to_Reference>
0.879064995626197

> <s_epik_cmdline>
J2VwaWtfcHl0aG9uJywgJy1waCcsICc3LjAnLCAnLXRuJywgJzgnLCAnLW1hJywgJzUwMCcsICctaW1hZScsICc8aW5maWxlLm1hZT4nLCAnLW9tYWUnLCAnPG91dGZpbGUubWFlPic=

> <s_epik_input>
RkMoRikoRiljKFtjSF1bY0hdMSlbY0hdW2NIXWMxLWMoW2NIXTIpW2NIXVtjSF1jKGMyMyljKFtjSF1jKFtjSF0zKUMoPU8pW09IXSktYzRbY0hdW2NIXWMoW2NIXVtjSF00KS1uNW5uYyhbY0hdNSlbQ0gyXVtDSDJdW09IXQ==

> <s_lp_Force_Field>
S-OPLS

> <s_lp_Variant>
8-1

> <s_m_Source_File>
compounds-paper5-aligned-activity-fixed-definitive.sdf

> <s_m_Source_Path>
/data/matteo/P2Y14-antagonists-piperidineDerivatives-Wen2023/20250303-Field-Based-QSAR/paper5-definitive

> <s_m_entry_id>
6

> <s_m_entry_name>
compounds-paper5-aligned-activity-fixed-definitive.6

> <s_m_job_name>
align_ligands_1

> <s_m_subgroup_title>
compounds-paper5-aligned-activity-fixed-definitive

> <s_m_subgroupid>
compounds-paper5-aligned-activity-fixed-definitive

> <s_phase_Alignment_Method>
snapped core

> <s_phase_Alignment_Reason>


> <s_phase_Core_SMARTS>
a1aaaaa1-a(a2)aaa(a23)a(aaa3)-a4aaaaa4

$$$$
9b
                    3D
 Schrodinger Suite 2023-2.
 59 63  0  0  1  0            999 V2000
    6.0939    4.3069    1.8173 O   0  5  0  0  0  0
    6.6335    3.3065    1.2938 C   0  0  0  0  0  0
    5.7637    2.1649    0.8405 C   0  0  0  0  0  0
    4.3632    2.2211    1.0016 C   0  0  0  0  0  0
    3.5501    1.1548    0.5712 C   0  0  0  0  0  0
    2.1524    1.2383    0.7416 C   0  0  0  0  0  0
    1.3001    0.1930    0.3226 C   0  0  0  0  0  0
   -0.1610    0.2796    0.5158 C   0  0  0  0  0  0
   -0.9062   -0.8510    0.9207 C   0  0  0  0  0  0
   -2.2992   -0.7723    1.1122 C   0  0  0  0  0  0
   -2.9805    0.4435    0.8954 C   0  0  0  0  0  0
   -4.4843    0.5364    1.1094 C   0  0  0  0  0  0
   -5.0261    1.4324    0.2838 F   0  0  0  0  0  0
   -4.7261    0.9091    2.3654 F   0  0  0  0  0  0
   -5.0718   -0.6406    0.8904 F   0  0  0  0  0  0
   -2.2454    1.5776    0.4941 C   0  0  0  0  0  0
   -0.8521    1.4946    0.3065 C   0  0  0  0  0  0
    1.8847   -0.9390   -0.2850 C   0  0  0  0  0  0
    3.2777   -1.0307   -0.4622 C   0  0  0  0  0  0
    4.1320    0.0089   -0.0274 C   0  0  0  0  0  0
    5.5422   -0.0679   -0.1843 C   0  0  0  0  0  0
    6.2189   -1.2368   -0.7759 C   0  0  0  0  0  0
    6.1956   -2.4906   -0.1313 C   0  0  0  0  0  0
    6.8300   -3.6077   -0.7058 C   0  0  0  0  0  0
    7.5223   -3.4998   -1.9335 C   0  0  0  0  0  0
    8.1820   -4.6586   -2.5283 N   0  0  0  0  0  0
    7.9988   -5.0317   -3.8011 N   0  0  0  0  0  0
    8.7779   -6.1563   -3.9988 N   0  0  0  0  0  0
    9.4006   -6.4317   -2.8663 C   0  0  0  0  0  0
    9.4411   -5.3205   -0.4565 C   0  0  0  0  0  0
   10.4040   -6.3983   -0.0550 C   0  0  0  0  0  0
   10.7592   -6.2284    1.2676 O   0  0  0  0  0  0
    9.0549   -5.5052   -1.8941 C   0  0  0  0  0  0
    7.5479   -2.2386   -2.5763 C   0  0  0  0  0  0
    6.9102   -1.1235   -1.9992 C   0  0  0  0  0  0
    6.3353    1.0178    0.2468 C   0  0  0  0  0  0
    7.8718    3.2234    1.1339 O   0  0  0  0  0  0
   11.8787   -7.4083    1.8858 P   0  0  0  0  0  0
   12.1770   -7.1244    3.4215 O   0  5  0  0  0  0
   11.2324   -8.8543    1.7458 O   0  0  0  0  0  0
   13.2312   -7.3658    1.0510 O   0  5  0  0  0  0
    3.9085    3.0895    1.4592 H   0  0  0  0  0  0
    1.7276    2.1203    1.2020 H   0  0  0  0  0  0
   -0.4070   -1.7962    1.0886 H   0  0  0  0  0  0
   -2.8523   -1.6473    1.4272 H   0  0  0  0  0  0
   -2.7515    2.5195    0.3282 H   0  0  0  0  0  0
   -0.3104    2.3789   -0.0025 H   0  0  0  0  0  0
    1.2564   -1.7528   -0.6221 H   0  0  0  0  0  0
    3.7036   -1.9050   -0.9361 H   0  0  0  0  0  0
    5.6857   -2.6022    0.8165 H   0  0  0  0  0  0
    6.7922   -4.5672   -0.2071 H   0  0  0  0  0  0
   10.0765   -7.2714   -2.7566 H   0  0  0  0  0  0
    8.5504   -5.3775    0.1691 H   0  0  0  0  0  0
    9.9127   -4.3461   -0.3293 H   0  0  0  0  0  0
    9.9323   -7.3727   -0.1822 H   0  0  0  0  0  0
   11.2947   -6.3413   -0.6807 H   0  0  0  0  0  0
    8.0615   -2.1235   -3.5217 H   0  0  0  0  0  0
    6.9562   -0.1698   -2.5083 H   0  0  0  0  0  0
    7.4075    0.9588    0.1140 H   0  0  0  0  0  0
  1  2  1  0  0  0
  2  3  1  0  0  0
  2 37  2  0  0  0
  3  4  2  0  0  0
  3 36  1  0  0  0
  4  5  1  0  0  0
  4 42  1  0  0  0
  5  6  2  0  0  0
  5 20  1  0  0  0
  6  7  1  0  0  0
  6 43  1  0  0  0
  7  8  1  0  0  0
  7 18  2  0  0  0
  8  9  2  0  0  0
  8 17  1  0  0  0
  9 10  1  0  0  0
  9 44  1  0  0  0
 10 11  2  0  0  0
 10 45  1  0  0  0
 11 12  1  0  0  0
 11 16  1  0  0  0
 12 13  1  0  0  0
 12 14  1  0  0  0
 12 15  1  0  0  0
 16 17  2  0  0  0
 16 46  1  0  0  0
 17 47  1  0  0  0
 18 19  1  0  0  0
 18 48  1  0  0  0
 19 20  2  0  0  0
 19 49  1  0  0  0
 20 21  1  0  0  0
 21 22  1  0  0  0
 21 36  2  0  0  0
 22 23  2  0  0  0
 22 35  1  0  0  0
 23 24  1  0  0  0
 23 50  1  0  0  0
 24 25  2  0  0  0
 24 51  1  0  0  0
 25 26  1  0  0  0
 25 34  1  0  0  0
 26 27  1  0  0  0
 26 33  1  0  0  0
 27 28  2  0  0  0
 28 29  1  0  0  0
 29 33  2  0  0  0
 29 52  1  0  0  0
 30 31  1  0  0  0
 30 33  1  0  0  0
 30 53  1  0  0  0
 30 54  1  0  0  0
 31 32  1  0  0  0
 31 55  1  0  0  0
 31 56  1  0  0  0
 32 38  1  0  0  0
 34 35  2  0  0  0
 34 57  1  0  0  0
 35 58  1  0  0  0
 36 59  1  0  0  0
 38 39  1  0  0  0
 38 40  2  0  0  0
 38 41  1  0  0  0
M  CHG  3   1  -1  39  -1  41  -1
M  END
> <i_m_Source_File_Index>
7

> <i_phase_Input_Structure_Number>
7

> <i_phase_Reference_Structure>
1

> <i_phase_Structure_Number>
7

> <b_m_subgroup_collapsed>
0

> <r_canvas_IC50_(nM)_at_hP2Y14R>
157

> <r_canvas_pIC50>
6.804

> <r_m_Percent_Extrap>
0.0300920319689998

> <r_m_predicted_activity1>
6.738809892239

> <r_m_predicted_activity10>
6.62213743483268

> <r_m_predicted_activity11>
6.50493557814224

> <r_m_predicted_activity12>
6.46795699291872

> <r_m_predicted_activity13>
6.39819103989822

> <r_m_predicted_activity14>
6.36437236807807

> <r_m_predicted_activity2>
6.27365401752791

> <r_m_predicted_activity3>
6.55815434743548

> <r_m_predicted_activity4>
6.61706111113759

> <r_m_predicted_activity5>
6.82447813699082

> <r_m_predicted_activity6>
6.80511995943182

> <r_m_predicted_activity7>
6.6431574176498

> <r_m_predicted_activity8>
6.64423426088567

> <r_m_predicted_activity9>
6.65067409934195

> <r_phase_Similarity_to_Reference>
0.876006526986128

> <s_m_Source_File>
compounds-paper5-aligned-activity-fixed-definitive.sdf

> <s_m_Source_Path>
/data/matteo/P2Y14-antagonists-piperidineDerivatives-Wen2023/20250303-Field-Based-QSAR/paper5-definitive

> <s_m_entry_id>
7

> <s_m_entry_name>
compounds-paper5-aligned-activity-fixed-definitive.7

> <s_m_job_name>
align_ligands_1

> <s_m_subgroup_title>
compounds-paper5-aligned-activity-fixed-definitive

> <s_m_subgroupid>
compounds-paper5-aligned-activity-fixed-definitive

> <s_phase_Alignment_Method>
snapped core

> <s_phase_Alignment_Reason>


> <s_phase_Core_SMARTS>
a1aaaaa1-a(a2)aaa(a23)a(aaa3)-a4aaaaa4

$$$$
10
                    3D
 Schrodinger Suite 2023-2.
 49 53  0  0  1  0            999 V2000
    6.0939    4.3069    1.8173 O   0  5  0  0  0  0
    6.6335    3.3065    1.2938 C   0  0  0  0  0  0
    5.7637    2.1649    0.8405 C   0  0  0  0  0  0
    4.3632    2.2211    1.0016 C   0  0  0  0  0  0
    3.5501    1.1548    0.5712 C   0  0  0  0  0  0
    2.1524    1.2383    0.7416 C   0  0  0  0  0  0
    1.3001    0.1930    0.3226 C   0  0  0  0  0  0
   -0.1610    0.2796    0.5158 C   0  0  0  0  0  0
   -0.9062   -0.8510    0.9207 C   0  0  0  0  0  0
   -2.2992   -0.7723    1.1122 C   0  0  0  0  0  0
   -2.9805    0.4435    0.8954 C   0  0  0  0  0  0
   -4.4843    0.5364    1.1094 C   0  0  0  0  0  0
   -5.0261    1.4324    0.2838 F   0  0  0  0  0  0
   -4.7261    0.9091    2.3654 F   0  0  0  0  0  0
   -5.0718   -0.6406    0.8904 F   0  0  0  0  0  0
   -2.2454    1.5776    0.4941 C   0  0  0  0  0  0
   -0.8521    1.4946    0.3065 C   0  0  0  0  0  0
    1.8847   -0.9390   -0.2850 C   0  0  0  0  0  0
    3.2777   -1.0307   -0.4622 C   0  0  0  0  0  0
    4.1320    0.0089   -0.0274 C   0  0  0  0  0  0
    5.5422   -0.0679   -0.1843 C   0  0  0  0  0  0
    6.2189   -1.2368   -0.7759 C   0  0  0  0  0  0
    6.1956   -2.4906   -0.1313 C   0  0  0  0  0  0
    6.8300   -3.6077   -0.7058 C   0  0  0  0  0  0
    7.5223   -3.4998   -1.9335 C   0  0  0  0  0  0
    8.2039   -4.6893   -2.5421 C   0  0  0  0  0  0
    8.9177   -4.7259   -3.7394 C   0  0  0  0  0  0
    9.3685   -5.9393   -3.9443 N   0  0  0  0  0  0
    8.9186   -6.6074   -2.8694 N   0  0  3  0  0  0
    8.2058   -5.8797   -1.9939 N   0  0  0  0  0  0
    7.5479   -2.2386   -2.5763 C   0  0  0  0  0  0
    6.9102   -1.1235   -1.9992 C   0  0  0  0  0  0
    6.3353    1.0178    0.2468 C   0  0  0  0  0  0
    7.8718    3.2234    1.1339 O   0  0  0  0  0  0
    3.9024    3.0870    1.4554 H   0  0  0  0  0  0
    1.7300    2.1153    1.2107 H   0  0  0  0  0  0
   -0.4079   -1.7928    1.0983 H   0  0  0  0  0  0
   -2.8410   -1.6516    1.4280 H   0  0  0  0  0  0
   -2.7462    2.5201    0.3285 H   0  0  0  0  0  0
   -0.3137    2.3771   -0.0069 H   0  0  0  0  0  0
    1.2616   -1.7515   -0.6288 H   0  0  0  0  0  0
    3.6723   -1.9146   -0.9397 H   0  0  0  0  0  0
    5.6775   -2.6005    0.8103 H   0  0  0  0  0  0
    6.7838   -4.5519   -0.1835 H   0  0  0  0  0  0
    9.0929   -3.9007   -4.4196 H   0  0  0  0  0  0
    9.1056   -7.6002   -2.7276 H   0  0  0  0  0  0
    8.0628   -2.1114   -3.5166 H   0  0  0  0  0  0
    6.9455   -0.1712   -2.5082 H   0  0  0  0  0  0
    7.4070    0.9552    0.1220 H   0  0  0  0  0  0
  1  2  1  0  0  0
  2  3  1  0  0  0
  2 34  2  0  0  0
  3 33  1  0  0  0
  3  4  2  0  0  0
  4  5  1  0  0  0
  4 35  1  0  0  0
  5 20  1  0  0  0
  5  6  2  0  0  0
  6  7  1  0  0  0
  6 36  1  0  0  0
  7  8  1  0  0  0
  7 18  2  0  0  0
  8 17  1  0  0  0
  8  9  2  0  0  0
  9 10  1  0  0  0
  9 37  1  0  0  0
 10 11  2  0  0  0
 10 38  1  0  0  0
 11 12  1  0  0  0
 11 16  1  0  0  0
 12 13  1  0  0  0
 12 14  1  0  0  0
 12 15  1  0  0  0
 16 17  2  0  0  0
 16 39  1  0  0  0
 17 40  1  0  0  0
 18 19  1  0  0  0
 18 41  1  0  0  0
 19 20  2  0  0  0
 19 42  1  0  0  0
 20 21  1  0  0  0
 21 22  1  0  0  0
 21 33  2  0  0  0
 22 32  1  0  0  0
 22 23  2  0  0  0
 23 24  1  0  0  0
 23 43  1  0  0  0
 24 25  2  0  0  0
 24 44  1  0  0  0
 25 31  1  0  0  0
 25 26  1  0  0  0
 26 30  2  0  0  0
 26 27  1  0  0  0
 27 45  1  0  0  0
 27 28  2  0  0  0
 28 29  1  0  0  0
 29 46  1  0  0  0
 29 30  1  0  0  0
 31 32  2  0  0  0
 31 47  1  0  0  0
 32 48  1  0  0  0
 33 49  1  0  0  0
M  CHG  1   1  -1
M  END
> <i_epik_Tot_Q>
-1

> <i_epik_Tot_abs_Q>
1

> <i_lp_mmshare_version>
62121

> <i_m_Source_File_Index>
8

> <i_phase_Input_Structure_Number>
8

> <i_phase_Reference_Structure>
1

> <i_phase_Structure_Number>
8

> <i_f3d_flags>
0

> <b_lp_Chiralities_Consistent>
1

> <b_m_subgroup_collapsed>
0

> <r_canvas_IC50_(nM)_at_hP2Y14R>
3.69

> <r_canvas_pIC50>
8.43297363384094

> <r_epik_Charging_Adjusted_Penalty>
0.459595952158927

> <r_epik_Ionization_Penalty>
  0.1953

> <r_epik_Ionization_Penalty_Charging>
  0.0006

> <r_epik_Ionization_Penalty_Neutral>
  0.1947

> <r_epik_State_Penalty>
  0.4590

> <r_lp_Energy>
55.837623

> <r_lp_tautomer_probability>
0.652347652347652

> <r_m_Percent_Extrap>
0.0041777670138048

> <r_m_predicted_activity1>
6.76051211504568

> <r_m_predicted_activity10>
7.94260477422845

> <r_m_predicted_activity11>
7.92894795751661

> <r_m_predicted_activity12>
7.89829700411923

> <r_m_predicted_activity13>
7.84398649000065

> <r_m_predicted_activity14>
7.83208200175692

> <r_m_predicted_activity2>
6.65065421666484

> <r_m_predicted_activity3>
7.30140831002233

> <r_m_predicted_activity4>
7.39163841017503

> <r_m_predicted_activity5>
7.49021438118423

> <r_m_predicted_activity6>
7.64933225142857

> <r_m_predicted_activity7>
7.69425683554322

> <r_m_predicted_activity8>
7.81897752544682

> <r_m_predicted_activity9>
7.91002012154167

> <r_phase_Similarity_to_Reference>
0.889963182681693

> <s_epik_cmdline>
J2VwaWtfcHl0aG9uJywgJy1waCcsICc3LjAnLCAnLXRuJywgJzgnLCAnLW1hJywgJzUwMCcsICctaW1hZScsICc8aW5maWxlLm1hZT4nLCAnLW9tYWUnLCAnPG91dGZpbGUubWFlPic=

> <s_epik_input>
bjFuW25IXVtjSF1jMS1jKFtjSF1bY0hdMilbY0hdW2NIXWMyLWMoW2NIXWMoW2NIXTMpQyg9TylbT0hdKWMoYzM0KVtjSF1bY0hdYyhbY0hdNCktYzVbY0hdW2NIXWMoQyhGKShGKUYpW2NIXVtjSF01

> <s_lp_Force_Field>
S-OPLS

> <s_lp_Variant>
10-1

> <s_m_Source_File>
compounds-paper5-aligned-activity-fixed-definitive.sdf

> <s_m_Source_Path>
/data/matteo/P2Y14-antagonists-piperidineDerivatives-Wen2023/20250303-Field-Based-QSAR/paper5-definitive

> <s_m_entry_id>
8

> <s_m_entry_name>
compounds-paper5-aligned-activity-fixed-definitive.8

> <s_m_job_name>
align_ligands_1

> <s_m_subgroup_title>
compounds-paper5-aligned-activity-fixed-definitive

> <s_m_subgroupid>
compounds-paper5-aligned-activity-fixed-definitive

> <s_phase_Alignment_Method>
snapped core

> <s_phase_Alignment_Reason>


> <s_phase_Core_SMARTS>
a1aaaaa1-a(a2)aaa(a23)a(aaa3)-a4aaaaa4

$$$$
11
                    3D
 Schrodinger Suite 2023-2.
 50 54  0  0  1  0            999 V2000
    6.0939    4.3069    1.8173 O   0  5  0  0  0  0
    6.6335    3.3065    1.2938 C   0  0  0  0  0  0
    5.7637    2.1649    0.8405 C   0  0  0  0  0  0
    4.3632    2.2211    1.0016 C   0  0  0  0  0  0
    3.5501    1.1548    0.5712 C   0  0  0  0  0  0
    2.1524    1.2383    0.7416 C   0  0  0  0  0  0
    1.3001    0.1930    0.3226 C   0  0  0  0  0  0
   -0.1610    0.2796    0.5158 C   0  0  0  0  0  0
   -0.9062   -0.8510    0.9207 C   0  0  0  0  0  0
   -2.2992   -0.7723    1.1122 C   0  0  0  0  0  0
   -2.9805    0.4435    0.8954 C   0  0  0  0  0  0
   -4.4843    0.5364    1.1094 C   0  0  0  0  0  0
   -5.0261    1.4324    0.2838 F   0  0  0  0  0  0
   -4.7261    0.9091    2.3654 F   0  0  0  0  0  0
   -5.0718   -0.6406    0.8904 F   0  0  0  0  0  0
   -2.2454    1.5776    0.4941 C   0  0  0  0  0  0
   -0.8521    1.4946    0.3065 C   0  0  0  0  0  0
    1.8847   -0.9390   -0.2850 C   0  0  0  0  0  0
    3.2777   -1.0307   -0.4622 C   0  0  0  0  0  0
    4.1320    0.0089   -0.0274 C   0  0  0  0  0  0
    5.5422   -0.0679   -0.1843 C   0  0  0  0  0  0
    6.2189   -1.2368   -0.7759 C   0  0  0  0  0  0
    6.1956   -2.4906   -0.1313 C   0  0  0  0  0  0
    6.8300   -3.6077   -0.7058 C   0  0  0  0  0  0
    7.5223   -3.4998   -1.9335 C   0  0  0  0  0  0
    8.2039   -4.6894   -2.5421 C   0  0  0  0  0  0
    8.1892   -5.8729   -1.9691 N   0  0  0  0  0  0
    8.8914   -6.6655   -2.7966 N   0  0  0  0  0  0
    9.3581   -5.9995   -3.8990 C   0  0  0  0  0  0
    8.9144   -4.6985   -3.7467 C   0  0  0  0  0  0
    7.5479   -2.2386   -2.5763 C   0  0  0  0  0  0
    6.9102   -1.1235   -1.9992 C   0  0  0  0  0  0
    6.3353    1.0178    0.2468 C   0  0  0  0  0  0
    7.8718    3.2234    1.1339 O   0  0  0  0  0  0
    3.9026    3.0874    1.4549 H   0  0  0  0  0  0
    1.7301    2.1152    1.2107 H   0  0  0  0  0  0
   -0.4077   -1.7925    1.0992 H   0  0  0  0  0  0
   -2.8408   -1.6507    1.4308 H   0  0  0  0  0  0
   -2.7461    2.5205    0.3306 H   0  0  0  0  0  0
   -0.3136    2.3772   -0.0066 H   0  0  0  0  0  0
    1.2616   -1.7513   -0.6293 H   0  0  0  0  0  0
    3.6723   -1.9143   -0.9402 H   0  0  0  0  0  0
    5.6776   -2.6005    0.8103 H   0  0  0  0  0  0
    6.7831   -4.5512   -0.1822 H   0  0  0  0  0  0
    9.0518   -7.6554   -2.6111 H   0  0  0  0  0  0
    9.9424   -6.5005   -4.6611 H   0  0  0  0  0  0
    9.0802   -3.8637   -4.4153 H   0  0  0  0  0  0
    8.0623   -2.1110   -3.5167 H   0  0  0  0  0  0
    6.9452   -0.1713   -2.5083 H   0  0  0  0  0  0
    7.4069    0.9551    0.1215 H   0  0  0  0  0  0
  1  2  1  0  0  0
  2  3  1  0  0  0
  2 34  2  0  0  0
  3 33  1  0  0  0
  3  4  2  0  0  0
  4  5  1  0  0  0
  4 35  1  0  0  0
  5 20  1  0  0  0
  5  6  2  0  0  0
  6  7  1  0  0  0
  6 36  1  0  0  0
  7  8  1  0  0  0
  7 18  2  0  0  0
  8 17  1  0  0  0
  8  9  2  0  0  0
  9 10  1  0  0  0
  9 37  1  0  0  0
 10 11  2  0  0  0
 10 38  1  0  0  0
 11 12  1  0  0  0
 11 16  1  0  0  0
 12 13  1  0  0  0
 12 14  1  0  0  0
 12 15  1  0  0  0
 16 17  2  0  0  0
 16 39  1  0  0  0
 17 40  1  0  0  0
 18 19  1  0  0  0
 18 41  1  0  0  0
 19 20  2  0  0  0
 19 42  1  0  0  0
 20 21  1  0  0  0
 21 22  1  0  0  0
 21 33  2  0  0  0
 22 32  1  0  0  0
 22 23  2  0  0  0
 23 24  1  0  0  0
 23 43  1  0  0  0
 24 25  2  0  0  0
 24 44  1  0  0  0
 25 26  1  0  0  0
 25 31  1  0  0  0
 26 30  1  0  0  0
 26 27  2  0  0  0
 27 28  1  0  0  0
 28 29  1  0  0  0
 28 45  1  0  0  0
 29 30  2  0  0  0
 29 46  1  0  0  0
 30 47  1  0  0  0
 31 32  2  0  0  0
 31 48  1  0  0  0
 32 49  1  0  0  0
 33 50  1  0  0  0
M  CHG  1   1  -1
M  END
> <i_epik_Tot_Q>
-1

> <i_epik_Tot_abs_Q>
1

> <i_lp_mmshare_version>
62121

> <i_m_Source_File_Index>
9

> <i_phase_Input_Structure_Number>
9

> <i_phase_Reference_Structure>
1

> <i_phase_Structure_Number>
9

> <i_f3d_flags>
0

> <b_lp_Chiralities_Consistent>
1

> <b_m_subgroup_collapsed>
0

> <r_canvas_IC50_(nM)_at_hP2Y14R>
2.88

> <r_canvas_pIC50>
8.54060751224077

> <r_epik_Charging_Adjusted_Penalty>
0.411270646958455

> <r_epik_Ionization_Penalty>
  0.0006

> <r_epik_Ionization_Penalty_Charging>
  0.0006

> <r_epik_Ionization_Penalty_Neutral>
  0.0000

> <r_epik_State_Penalty>
  0.4107

> <r_lp_Energy>
58.341378

> <r_lp_tautomer_probability>
0.5

> <r_m_Percent_Extrap>
0.00448050375393558

> <r_m_predicted_activity1>
6.83083614356377

> <r_m_predicted_activity10>
7.98067086903574

> <r_m_predicted_activity11>
7.91880739287239

> <r_m_predicted_activity12>
7.89746752282001

> <r_m_predicted_activity13>
7.86235157607821

> <r_m_predicted_activity14>
7.87572000631282

> <r_m_predicted_activity2>
6.85019908433723

> <r_m_predicted_activity3>
7.47782113530071

> <r_m_predicted_activity4>
7.56687887297399

> <r_m_predicted_activity5>
7.62228595426094

> <r_m_predicted_activity6>
7.7769328313052

> <r_m_predicted_activity7>
7.78386110424848

> <r_m_predicted_activity8>
7.87923546850041

> <r_m_predicted_activity9>
7.97224182801593

> <r_phase_Similarity_to_Reference>
0.910805294370617

> <s_epik_cmdline>
J2VwaWtfcHl0aG9uJywgJy1waCcsICc3LjAnLCAnLXRuJywgJzgnLCAnLW1hJywgJzUwMCcsICctaW1hZScsICc8aW5maWxlLm1hZT4nLCAnLW9tYWUnLCAnPG91dGZpbGUubWFlPic=

> <s_epik_input>
W2NIXTFbY0hdW25IXW5jMS1jKFtjSF1bY0hdMilbY0hdW2NIXWMyLWMoW2NIXWMoW2NIXTMpQyg9TylbT0hdKWMoYzM0KVtjSF1bY0hdYyhbY0hdNCktYzVbY0hdW2NIXWMoQyhGKShGKUYpW2NIXVtjSF01

> <s_lp_Force_Field>
S-OPLS

> <s_lp_Variant>
11-1

> <s_m_Source_File>
compounds-paper5-aligned-activity-fixed-definitive.sdf

> <s_m_Source_Path>
/data/matteo/P2Y14-antagonists-piperidineDerivatives-Wen2023/20250303-Field-Based-QSAR/paper5-definitive

> <s_m_entry_id>
9

> <s_m_entry_name>
compounds-paper5-aligned-activity-fixed-definitive.9

> <s_m_job_name>
align_ligands_1

> <s_m_subgroup_title>
compounds-paper5-aligned-activity-fixed-definitive

> <s_m_subgroupid>
compounds-paper5-aligned-activity-fixed-definitive

> <s_phase_Alignment_Method>
snapped core

> <s_phase_Alignment_Reason>


> <s_phase_Core_SMARTS>
a1aaaaa1-a(a2)aaa(a23)a(aaa3)-a4aaaaa4

$$$$
12
                    3D
 Schrodinger Suite 2023-2.
 53 57  0  0  1  0            999 V2000
    6.0939    4.3069    1.8173 O   0  5  0  0  0  0
    6.6335    3.3065    1.2938 C   0  0  0  0  0  0
    5.7637    2.1649    0.8405 C   0  0  0  0  0  0
    4.3632    2.2211    1.0016 C   0  0  0  0  0  0
    3.5501    1.1548    0.5712 C   0  0  0  0  0  0
    2.1524    1.2383    0.7416 C   0  0  0  0  0  0
    1.3001    0.1930    0.3226 C   0  0  0  0  0  0
   -0.1610    0.2796    0.5158 C   0  0  0  0  0  0
   -0.9062   -0.8510    0.9207 C   0  0  0  0  0  0
   -2.2992   -0.7723    1.1122 C   0  0  0  0  0  0
   -2.9805    0.4435    0.8954 C   0  0  0  0  0  0
   -4.4843    0.5364    1.1094 C   0  0  0  0  0  0
   -5.0261    1.4324    0.2838 F   0  0  0  0  0  0
   -4.7261    0.9091    2.3654 F   0  0  0  0  0  0
   -5.0718   -0.6406    0.8904 F   0  0  0  0  0  0
   -2.2454    1.5776    0.4941 C   0  0  0  0  0  0
   -0.8521    1.4946    0.3065 C   0  0  0  0  0  0
    1.8847   -0.9390   -0.2850 C   0  0  0  0  0  0
    3.2777   -1.0307   -0.4622 C   0  0  0  0  0  0
    4.1320    0.0089   -0.0274 C   0  0  0  0  0  0
    5.5422   -0.0679   -0.1843 C   0  0  0  0  0  0
    6.2189   -1.2368   -0.7759 C   0  0  0  0  0  0
    6.9102   -1.1235   -1.9992 C   0  0  0  0  0  0
    7.5479   -2.2386   -2.5763 C   0  0  0  0  0  0
    7.5223   -3.4998   -1.9335 C   0  0  0  0  0  0
    8.2039   -4.6894   -2.5421 C   0  0  0  0  0  0
    8.1950   -5.8713   -1.9657 N   0  0  0  0  0  0
    8.8951   -6.6645   -2.7944 N   0  0  0  0  0  0
    9.1296   -8.0803   -2.5260 C   0  0  0  0  0  0
    9.3548   -6.0004   -3.9010 C   0  0  0  0  0  0
    8.9086   -4.7001   -3.7501 C   0  0  0  0  0  0
    6.8300   -3.6077   -0.7058 C   0  0  0  0  0  0
    6.1956   -2.4906   -0.1313 C   0  0  0  0  0  0
    6.3353    1.0178    0.2468 C   0  0  0  0  0  0
    7.8718    3.2234    1.1339 O   0  0  0  0  0  0
    3.9027    3.0874    1.4547 H   0  0  0  0  0  0
    1.7301    2.1151    1.2112 H   0  0  0  0  0  0
   -0.4076   -1.7924    1.0998 H   0  0  0  0  0  0
   -2.8409   -1.6500    1.4326 H   0  0  0  0  0  0
   -2.7462    2.5207    0.3326 H   0  0  0  0  0  0
   -0.3135    2.3773   -0.0061 H   0  0  0  0  0  0
    1.2616   -1.7513   -0.6293 H   0  0  0  0  0  0
    3.6723   -1.9143   -0.9402 H   0  0  0  0  0  0
    6.9453   -0.1713   -2.5083 H   0  0  0  0  0  0
    8.0625   -2.1113   -3.5166 H   0  0  0  0  0  0
    9.7187   -8.5109   -3.3357 H   0  0  0  0  0  0
    8.1740   -8.5999   -2.4558 H   0  0  0  0  0  0
    9.6712   -8.1870   -1.5861 H   0  0  0  0  0  0
    9.9366   -6.5020   -4.6645 H   0  0  0  0  0  0
    9.0690   -3.8667   -4.4218 H   0  0  0  0  0  0
    6.7833   -4.5514   -0.1826 H   0  0  0  0  0  0
    5.6776   -2.6005    0.8103 H   0  0  0  0  0  0
    7.4069    0.9555    0.1217 H   0  0  0  0  0  0
  1  2  1  0  0  0
  2  3  1  0  0  0
  2 35  2  0  0  0
  3 34  1  0  0  0
  3  4  2  0  0  0
  4  5  1  0  0  0
  4 36  1  0  0  0
  5 20  1  0  0  0
  5  6  2  0  0  0
  6  7  1  0  0  0
  6 37  1  0  0  0
  7  8  1  0  0  0
  7 18  2  0  0  0
  8 17  1  0  0  0
  8  9  2  0  0  0
  9 10  1  0  0  0
  9 38  1  0  0  0
 10 11  2  0  0  0
 10 39  1  0  0  0
 11 12  1  0  0  0
 11 16  1  0  0  0
 12 13  1  0  0  0
 12 14  1  0  0  0
 12 15  1  0  0  0
 16 17  2  0  0  0
 16 40  1  0  0  0
 17 41  1  0  0  0
 18 19  1  0  0  0
 18 42  1  0  0  0
 19 20  2  0  0  0
 19 43  1  0  0  0
 20 21  1  0  0  0
 21 22  1  0  0  0
 21 34  2  0  0  0
 22 33  1  0  0  0
 22 23  2  0  0  0
 23 24  1  0  0  0
 23 44  1  0  0  0
 24 25  2  0  0  0
 24 45  1  0  0  0
 25 26  1  0  0  0
 25 32  1  0  0  0
 26 31  1  0  0  0
 26 27  2  0  0  0
 27 28  1  0  0  0
 28 29  1  0  0  0
 28 30  1  0  0  0
 29 46  1  0  0  0
 29 47  1  0  0  0
 29 48  1  0  0  0
 30 31  2  0  0  0
 30 49  1  0  0  0
 31 50  1  0  0  0
 32 33  2  0  0  0
 32 51  1  0  0  0
 33 52  1  0  0  0
 34 53  1  0  0  0
M  CHG  1   1  -1
M  END
> <i_epik_Tot_Q>
-1

> <i_epik_Tot_abs_Q>
1

> <i_lp_mmshare_version>
62121

> <i_m_Source_File_Index>
10

> <i_phase_Input_Structure_Number>
10

> <i_phase_Reference_Structure>
1

> <i_phase_Structure_Number>
10

> <i_f3d_flags>
0

> <b_lp_Chiralities_Consistent>
1

> <b_m_subgroup_collapsed>
0

> <r_canvas_IC50_(nM)_at_hP2Y14R>
35.5

> <r_canvas_pIC50>
7.44977164694491

> <r_epik_Charging_Adjusted_Penalty>
0.00118161601170164

> <r_epik_Ionization_Penalty>
  0.0007

> <r_epik_Ionization_Penalty_Charging>
  0.0006

> <r_epik_Ionization_Penalty_Neutral>
  0.0001

> <r_epik_State_Penalty>
  0.0006

> <r_lp_Energy>
57.642296

> <r_lp_tautomer_probability>
1

> <r_m_Percent_Extrap>
0.00290627270525551

> <r_m_predicted_activity1>
6.87986760259234

> <r_m_predicted_activity10>
7.52313624663616

> <r_m_predicted_activity11>
7.45224396601832

> <r_m_predicted_activity12>
7.37329558826297

> <r_m_predicted_activity13>
7.25511519638633

> <r_m_predicted_activity14>
7.22842163014069

> <r_m_predicted_activity2>
6.82223135845039

> <r_m_predicted_activity3>
7.29185042991087

> <r_m_predicted_activity4>
7.4252163206179

> <r_m_predicted_activity5>
7.46654818067938

> <r_m_predicted_activity6>
7.59312421145824

> <r_m_predicted_activity7>
7.47135525073798

> <r_m_predicted_activity8>
7.49188340982854

> <r_m_predicted_activity9>
7.50482180919943

> <r_phase_Similarity_to_Reference>
0.919608968801395

> <s_epik_cmdline>
J2VwaWtfcHl0aG9uJywgJy1waCcsICc3LjAnLCAnLXRuJywgJzgnLCAnLW1hJywgJzUwMCcsICctaW1hZScsICc8aW5maWxlLm1hZT4nLCAnLW9tYWUnLCAnPG91dGZpbGUubWFlPic=

> <s_epik_input>
W2NIXTFbY0hdbihbQ0gzXSluYzEtYyhbY0hdW2NIXTIpW2NIXVtjSF1jMi1jKFtjSF1jKFtjSF0zKUMoPU8pW09IXSljKGMzNClbY0hdW2NIXWMoW2NIXTQpLWM1W2NIXVtjSF1jKEMoRikoRilGKVtjSF1bY0hdNQ==

> <s_lp_Force_Field>
S-OPLS

> <s_lp_Variant>
12-1

> <s_m_Source_File>
compounds-paper5-aligned-activity-fixed-definitive.sdf

> <s_m_Source_Path>
/data/matteo/P2Y14-antagonists-piperidineDerivatives-Wen2023/20250303-Field-Based-QSAR/paper5-definitive

> <s_m_entry_id>
10

> <s_m_entry_name>
compounds-paper5-aligned-activity-fixed-definitive.10

> <s_m_job_name>
align_ligands_1

> <s_m_subgroup_title>
compounds-paper5-aligned-activity-fixed-definitive

> <s_m_subgroupid>
compounds-paper5-aligned-activity-fixed-definitive

> <s_phase_Alignment_Method>
snapped core

> <s_phase_Alignment_Reason>


> <s_phase_Core_SMARTS>
a1aaaaa1-a(a2)aaa(a23)a(aaa3)-a4aaaaa4

$$$$
13
                    3D
 Schrodinger Suite 2023-2.
 53 57  0  0  1  0            999 V2000
    6.0939    4.3069    1.8173 O   0  5  0  0  0  0
    6.6335    3.3065    1.2938 C   0  0  0  0  0  0
    5.7637    2.1649    0.8405 C   0  0  0  0  0  0
    4.3632    2.2211    1.0016 C   0  0  0  0  0  0
    3.5501    1.1548    0.5712 C   0  0  0  0  0  0
    2.1524    1.2383    0.7416 C   0  0  0  0  0  0
    1.3001    0.1930    0.3226 C   0  0  0  0  0  0
   -0.1610    0.2796    0.5158 C   0  0  0  0  0  0
   -0.9062   -0.8510    0.9207 C   0  0  0  0  0  0
   -2.2992   -0.7723    1.1122 C   0  0  0  0  0  0
   -2.9805    0.4435    0.8954 C   0  0  0  0  0  0
   -4.4843    0.5364    1.1094 C   0  0  0  0  0  0
   -5.0261    1.4324    0.2838 F   0  0  0  0  0  0
   -4.7261    0.9091    2.3654 F   0  0  0  0  0  0
   -5.0718   -0.6406    0.8904 F   0  0  0  0  0  0
   -2.2454    1.5776    0.4941 C   0  0  0  0  0  0
   -0.8521    1.4946    0.3065 C   0  0  0  0  0  0
    1.8847   -0.9390   -0.2850 C   0  0  0  0  0  0
    3.2777   -1.0307   -0.4622 C   0  0  0  0  0  0
    4.1320    0.0089   -0.0274 C   0  0  0  0  0  0
    5.5422   -0.0679   -0.1843 C   0  0  0  0  0  0
    6.2189   -1.2368   -0.7759 C   0  0  0  0  0  0
    6.1956   -2.4906   -0.1313 C   0  0  0  0  0  0
    6.8300   -3.6077   -0.7058 C   0  0  0  0  0  0
    7.5223   -3.4998   -1.9335 C   0  0  0  0  0  0
    8.2099   -4.6876   -2.5386 C   0  0  0  0  0  0
    8.4047   -5.1087   -3.8414 C   0  0  0  0  0  0
    9.1273   -6.3018   -3.7398 C   0  0  0  0  0  0
    9.3766   -6.6224   -2.4890 N   0  0  0  0  0  0
    8.8177   -5.6394   -1.7630 N   0  0  0  0  0  0
    8.8642   -5.6074   -0.3041 C   0  0  0  0  0  0
    7.5479   -2.2386   -2.5763 C   0  0  0  0  0  0
    6.9102   -1.1235   -1.9992 C   0  0  0  0  0  0
    6.3353    1.0178    0.2468 C   0  0  0  0  0  0
    7.8718    3.2234    1.1339 O   0  0  0  0  0  0
    3.9027    3.0875    1.4548 H   0  0  0  0  0  0
    1.7299    2.1152    1.2107 H   0  0  0  0  0  0
   -0.4077   -1.7924    1.0996 H   0  0  0  0  0  0
   -2.8402   -1.6508    1.4318 H   0  0  0  0  0  0
   -2.7456    2.5208    0.3312 H   0  0  0  0  0  0
   -0.3136    2.3772   -0.0065 H   0  0  0  0  0  0
    1.2613   -1.7510   -0.6294 H   0  0  0  0  0  0
    3.6723   -1.9142   -0.9405 H   0  0  0  0  0  0
    5.6772   -2.6005    0.8102 H   0  0  0  0  0  0
    6.7927   -4.5567   -0.1911 H   0  0  0  0  0  0
    8.0703   -4.6211   -4.7481 H   0  0  0  0  0  0
    9.4593   -6.9156   -4.5697 H   0  0  0  0  0  0
    8.3458   -4.7190    0.0566 H   0  0  0  0  0  0
    9.9027   -5.5811    0.0259 H   0  0  0  0  0  0
    8.3788   -6.4983    0.0945 H   0  0  0  0  0  0
    8.0810   -2.1136   -3.5067 H   0  0  0  0  0  0
    6.9499   -0.1698   -2.5057 H   0  0  0  0  0  0
    7.4070    0.9556    0.1214 H   0  0  0  0  0  0
  1  2  1  0  0  0
  2  3  1  0  0  0
  2 35  2  0  0  0
  3 34  1  0  0  0
  3  4  2  0  0  0
  4  5  1  0  0  0
  4 36  1  0  0  0
  5 20  1  0  0  0
  5  6  2  0  0  0
  6  7  1  0  0  0
  6 37  1  0  0  0
  7  8  1  0  0  0
  7 18  2  0  0  0
  8 17  1  0  0  0
  8  9  2  0  0  0
  9 10  1  0  0  0
  9 38  1  0  0  0
 10 11  2  0  0  0
 10 39  1  0  0  0
 11 12  1  0  0  0
 11 16  1  0  0  0
 12 13  1  0  0  0
 12 14  1  0  0  0
 12 15  1  0  0  0
 16 17  2  0  0  0
 16 40  1  0  0  0
 17 41  1  0  0  0
 18 19  1  0  0  0
 18 42  1  0  0  0
 19 20  2  0  0  0
 19 43  1  0  0  0
 20 21  1  0  0  0
 21 22  1  0  0  0
 21 34  2  0  0  0
 22 33  1  0  0  0
 22 23  2  0  0  0
 23 24  1  0  0  0
 23 44  1  0  0  0
 24 25  2  0  0  0
 24 45  1  0  0  0
 25 26  1  0  0  0
 25 32  1  0  0  0
 26 30  1  0  0  0
 26 27  2  0  0  0
 27 28  1  0  0  0
 27 46  1  0  0  0
 28 29  2  0  0  0
 28 47  1  0  0  0
 29 30  1  0  0  0
 30 31  1  0  0  0
 31 48  1  0  0  0
 31 49  1  0  0  0
 31 50  1  0  0  0
 32 33  2  0  0  0
 32 51  1  0  0  0
 33 52  1  0  0  0
 34 53  1  0  0  0
M  CHG  1   1  -1
M  END
> <i_epik_Tot_Q>
-1

> <i_epik_Tot_abs_Q>
1

> <i_lp_mmshare_version>
62121

> <i_m_Source_File_Index>
11

> <i_phase_Input_Structure_Number>
11

> <i_phase_Reference_Structure>
1

> <i_phase_Structure_Number>
11

> <i_f3d_flags>
0

> <b_lp_Chiralities_Consistent>
1

> <b_m_subgroup_collapsed>
0

> <r_canvas_IC50_(nM)_at_hP2Y14R>
49.1

> <r_canvas_pIC50>
7.309

> <r_epik_Charging_Adjusted_Penalty>
0.00118161601170164

> <r_epik_Ionization_Penalty>
  0.0008

> <r_epik_Ionization_Penalty_Charging>
  0.0006

> <r_epik_Ionization_Penalty_Neutral>
  0.0002

> <r_epik_State_Penalty>
  0.0006

> <r_lp_Energy>
57.951789

> <r_lp_tautomer_probability>
1

> <r_m_Percent_Extrap>
0.00399612496972633

> <r_m_predicted_activity1>
6.82718881110136

> <r_m_predicted_activity10>
6.88220112439332

> <r_m_predicted_activity11>
6.71421411709477

> <r_m_predicted_activity12>
6.61191974573151

> <r_m_predicted_activity13>
6.52382951933837

> <r_m_predicted_activity14>
6.56633389941914

> <r_m_predicted_activity2>
6.6449264511464

> <r_m_predicted_activity3>
7.08335220999652

> <r_m_predicted_activity4>
7.09734114224815

> <r_m_predicted_activity5>
7.14012652677134

> <r_m_predicted_activity6>
7.1852237483396

> <r_m_predicted_activity7>
7.07030852758073

> <r_m_predicted_activity8>
7.06772370506451

> <r_m_predicted_activity9>
6.9409912348325

> <r_phase_Similarity_to_Reference>
0.91314405715391

> <s_epik_cmdline>
J2VwaWtfcHl0aG9uJywgJy1waCcsICc3LjAnLCAnLXRuJywgJzgnLCAnLW1hJywgJzUwMCcsICctaW1hZScsICc8aW5maWxlLm1hZT4nLCAnLW9tYWUnLCAnPG91dGZpbGUubWFlPic=

> <s_epik_input>
W0NIM11uMW5bY0hdW2NIXWMxLWMoW2NIXVtjSF0yKVtjSF1bY0hdYzItYyhbY0hdYyhbY0hdMylDKD1PKVtPSF0pYyhjMzQpW2NIXVtjSF1jKFtjSF00KS1jNVtjSF1bY0hdYyhDKEYpKEYpRilbY0hdW2NIXTU=

> <s_lp_Force_Field>
S-OPLS

> <s_lp_Variant>
13-1

> <s_m_Source_File>
compounds-paper5-aligned-activity-fixed-definitive.sdf

> <s_m_Source_Path>
/data/matteo/P2Y14-antagonists-piperidineDerivatives-Wen2023/20250303-Field-Based-QSAR/paper5-definitive

> <s_m_entry_id>
11

> <s_m_entry_name>
compounds-paper5-aligned-activity-fixed-definitive.11

> <s_m_job_name>
align_ligands_1

> <s_m_subgroup_title>
compounds-paper5-aligned-activity-fixed-definitive

> <s_m_subgroupid>
compounds-paper5-aligned-activity-fixed-definitive

> <s_phase_Alignment_Method>
snapped core

> <s_phase_Alignment_Reason>


> <s_phase_Core_SMARTS>
a1aaaaa1-a(a2)aaa(a23)a(aaa3)-a4aaaaa4

$$$$
14
                    3D
 Schrodinger Suite 2023-2.
 50 54  0  0  1  0            999 V2000
    6.0939    4.3069    1.8173 O   0  5  0  0  0  0
    6.6335    3.3065    1.2938 C   0  0  0  0  0  0
    5.7637    2.1649    0.8405 C   0  0  0  0  0  0
    4.3632    2.2211    1.0016 C   0  0  0  0  0  0
    3.5501    1.1548    0.5712 C   0  0  0  0  0  0
    2.1524    1.2383    0.7416 C   0  0  0  0  0  0
    1.3001    0.1930    0.3226 C   0  0  0  0  0  0
   -0.1610    0.2796    0.5158 C   0  0  0  0  0  0
   -0.9062   -0.8510    0.9207 C   0  0  0  0  0  0
   -2.2992   -0.7723    1.1122 C   0  0  0  0  0  0
   -2.9805    0.4435    0.8954 C   0  0  0  0  0  0
   -4.4843    0.5364    1.1094 C   0  0  0  0  0  0
   -5.0261    1.4324    0.2838 F   0  0  0  0  0  0
   -4.7261    0.9091    2.3654 F   0  0  0  0  0  0
   -5.0718   -0.6406    0.8904 F   0  0  0  0  0  0
   -2.2454    1.5776    0.4941 C   0  0  0  0  0  0
   -0.8521    1.4946    0.3065 C   0  0  0  0  0  0
    1.8847   -0.9390   -0.2850 C   0  0  0  0  0  0
    3.2777   -1.0307   -0.4622 C   0  0  0  0  0  0
    4.1320    0.0089   -0.0274 C   0  0  0  0  0  0
    5.5422   -0.0679   -0.1843 C   0  0  0  0  0  0
    6.2189   -1.2368   -0.7759 C   0  0  0  0  0  0
    6.1956   -2.4906   -0.1313 C   0  0  0  0  0  0
    6.8300   -3.6077   -0.7058 C   0  0  0  0  0  0
    7.5223   -3.4998   -1.9335 C   0  0  0  0  0  0
    8.1968   -4.6533   -2.5452 C   0  0  0  0  0  0
    8.9057   -4.7101   -3.7245 C   0  0  0  0  0  0
    9.4284   -6.0058   -4.0140 C   0  0  0  0  0  0
    9.1082   -6.9174   -3.0473 C   0  0  0  0  0  0
    9.5182   -8.5840   -2.9741 Cl  0  0  0  0  0  0
    8.1652   -6.2243   -1.7632 S   0  0  0  0  0  0
    7.5479   -2.2386   -2.5763 C   0  0  0  0  0  0
    6.9102   -1.1235   -1.9992 C   0  0  0  0  0  0
    6.3353    1.0178    0.2468 C   0  0  0  0  0  0
    7.8718    3.2234    1.1339 O   0  0  0  0  0  0
    3.9024    3.0873    1.4549 H   0  0  0  0  0  0
    1.7301    2.1152    1.2108 H   0  0  0  0  0  0
   -0.4077   -1.7925    1.0994 H   0  0  0  0  0  0
   -2.8410   -1.6506    1.4309 H   0  0  0  0  0  0
   -2.7463    2.5203    0.3305 H   0  0  0  0  0  0
   -0.3136    2.3772   -0.0066 H   0  0  0  0  0  0
    1.2614   -1.7511   -0.6294 H   0  0  0  0  0  0
    3.6723   -1.9143   -0.9405 H   0  0  0  0  0  0
    5.6775   -2.6003    0.8104 H   0  0  0  0  0  0
    6.7762   -4.5448   -0.1735 H   0  0  0  0  0  0
    9.0721   -3.8785   -4.3925 H   0  0  0  0  0  0
   10.0071   -6.2173   -4.9010 H   0  0  0  0  0  0
    8.0610   -2.1069   -3.5167 H   0  0  0  0  0  0
    6.9452   -0.1713   -2.5084 H   0  0  0  0  0  0
    7.4071    0.9556    0.1216 H   0  0  0  0  0  0
  1  2  1  0  0  0
  2  3  1  0  0  0
  2 35  2  0  0  0
  3 34  1  0  0  0
  3  4  2  0  0  0
  4  5  1  0  0  0
  4 36  1  0  0  0
  5 20  1  0  0  0
  5  6  2  0  0  0
  6  7  1  0  0  0
  6 37  1  0  0  0
  7  8  1  0  0  0
  7 18  2  0  0  0
  8 17  1  0  0  0
  8  9  2  0  0  0
  9 10  1  0  0  0
  9 38  1  0  0  0
 10 11  2  0  0  0
 10 39  1  0  0  0
 11 12  1  0  0  0
 11 16  1  0  0  0
 12 13  1  0  0  0
 12 14  1  0  0  0
 12 15  1  0  0  0
 16 17  2  0  0  0
 16 40  1  0  0  0
 17 41  1  0  0  0
 18 19  1  0  0  0
 18 42  1  0  0  0
 19 20  2  0  0  0
 19 43  1  0  0  0
 20 21  1  0  0  0
 21 22  1  0  0  0
 21 34  2  0  0  0
 22 33  1  0  0  0
 22 23  2  0  0  0
 23 24  1  0  0  0
 23 44  1  0  0  0
 24 25  2  0  0  0
 24 45  1  0  0  0
 25 26  1  0  0  0
 25 32  1  0  0  0
 26 31  1  0  0  0
 26 27  2  0  0  0
 27 28  1  0  0  0
 27 46  1  0  0  0
 28 29  2  0  0  0
 28 47  1  0  0  0
 29 30  1  0  0  0
 29 31  1  0  0  0
 32 33  2  0  0  0
 32 48  1  0  0  0
 33 49  1  0  0  0
 34 50  1  0  0  0
M  CHG  1   1  -1
M  END
> <i_epik_Tot_Q>
-1

> <i_epik_Tot_abs_Q>
1

> <i_lp_mmshare_version>
62121

> <i_m_Source_File_Index>
12

> <i_phase_Input_Structure_Number>
12

> <i_phase_Reference_Structure>
1

> <i_phase_Structure_Number>
12

> <i_f3d_flags>
0

> <b_lp_Chiralities_Consistent>
1

> <b_m_subgroup_collapsed>
0

> <r_canvas_IC50_(nM)_at_hP2Y14R>
2040

> <r_canvas_pIC50>
5.69

> <r_epik_Charging_Adjusted_Penalty>
0.00118161601170164

> <r_epik_Ionization_Penalty>
  0.0006

> <r_epik_Ionization_Penalty_Charging>
  0.0006

> <r_epik_Ionization_Penalty_Neutral>
  0.0000

> <r_epik_State_Penalty>
  0.0006

> <r_lp_Energy>
59.021091

> <r_m_Percent_Extrap>
0.00666020828287721

> <r_m_predicted_activity1>
6.80723147072399

> <r_m_predicted_activity10>
7.09262307396381

> <r_m_predicted_activity11>
7.05436622122083

> <r_m_predicted_activity12>
6.94028946347132

> <r_m_predicted_activity13>
6.84132549908034

> <r_m_predicted_activity14>
6.84281028977104

> <r_m_predicted_activity2>
6.52599332260665

> <r_m_predicted_activity3>
7.01407736634419

> <r_m_predicted_activity4>
7.03412670870341

> <r_m_predicted_activity5>
6.95113102179299

> <r_m_predicted_activity6>
6.99278522137993

> <r_m_predicted_activity7>
6.90233203883146

> <r_m_predicted_activity8>
6.96048609593773

> <r_m_predicted_activity9>
6.95422686714322

> <r_phase_Similarity_to_Reference>
0.919817076599274

> <s_epik_cmdline>
J2VwaWtfcHl0aG9uJywgJy1waCcsICc3LjAnLCAnLXRuJywgJzgnLCAnLW1hJywgJzUwMCcsICctaW1hZScsICc8aW5maWxlLm1hZT4nLCAnLW9tYWUnLCAnPG91dGZpbGUubWFlPic=

> <s_epik_input>
Q2xjKHMxKVtjSF1bY0hdYzEtYyhbY0hdW2NIXTIpW2NIXVtjSF1jMi1jKFtjSF1jKFtjSF0zKUMoPU8pW09IXSljKGMzNClbY0hdW2NIXWMoW2NIXTQpLWM1W2NIXVtjSF1jKEMoRikoRilGKVtjSF1bY0hdNQ==

> <s_lp_Force_Field>
S-OPLS

> <s_lp_Variant>
14-1

> <s_m_Source_File>
compounds-paper5-aligned-activity-fixed-definitive.sdf

> <s_m_Source_Path>
/data/matteo/P2Y14-antagonists-piperidineDerivatives-Wen2023/20250303-Field-Based-QSAR/paper5-definitive

> <s_m_entry_id>
12

> <s_m_entry_name>
compounds-paper5-aligned-activity-fixed-definitive.12

> <s_m_job_name>
align_ligands_1

> <s_m_subgroup_title>
compounds-paper5-aligned-activity-fixed-definitive

> <s_m_subgroupid>
compounds-paper5-aligned-activity-fixed-definitive

> <s_phase_Alignment_Method>
snapped core

> <s_phase_Alignment_Reason>


> <s_phase_Core_SMARTS>
a1aaaaa1-a(a2)aaa(a23)a(aaa3)-a4aaaaa4

$$$$
15
                    3D
 Schrodinger Suite 2023-2.
 52 56  0  0  1  0            999 V2000
    6.0939    4.3069    1.8173 O   0  5  0  0  0  0
    6.6335    3.3065    1.2938 C   0  0  0  0  0  0
    5.7637    2.1649    0.8405 C   0  0  0  0  0  0
    4.3632    2.2211    1.0016 C   0  0  0  0  0  0
    3.5501    1.1548    0.5712 C   0  0  0  0  0  0
    2.1524    1.2383    0.7416 C   0  0  0  0  0  0
    1.3001    0.1930    0.3226 C   0  0  0  0  0  0
   -0.1610    0.2796    0.5158 C   0  0  0  0  0  0
   -0.9062   -0.8510    0.9207 C   0  0  0  0  0  0
   -2.2992   -0.7723    1.1122 C   0  0  0  0  0  0
   -2.9805    0.4435    0.8954 C   0  0  0  0  0  0
   -4.4843    0.5364    1.1094 C   0  0  0  0  0  0
   -5.0261    1.4324    0.2838 F   0  0  0  0  0  0
   -4.7261    0.9091    2.3654 F   0  0  0  0  0  0
   -5.0718   -0.6406    0.8904 F   0  0  0  0  0  0
   -2.2454    1.5776    0.4941 C   0  0  0  0  0  0
   -0.8521    1.4946    0.3065 C   0  0  0  0  0  0
    1.8847   -0.9390   -0.2850 C   0  0  0  0  0  0
    3.2777   -1.0307   -0.4622 C   0  0  0  0  0  0
    4.1320    0.0089   -0.0274 C   0  0  0  0  0  0
    5.5422   -0.0679   -0.1843 C   0  0  0  0  0  0
    6.2189   -1.2368   -0.7759 C   0  0  0  0  0  0
    6.9102   -1.1235   -1.9992 C   0  0  0  0  0  0
    7.5479   -2.2386   -2.5763 C   0  0  0  0  0  0
    7.5223   -3.4998   -1.9335 C   0  0  0  0  0  0
    8.2047   -4.6675   -2.5289 C   0  0  0  0  0  0
    8.8380   -5.6433   -1.7252 C   0  0  0  0  0  0
    9.4793   -6.7361   -2.3419 C   0  0  0  0  0  0
    9.5241   -6.9117   -3.6784 N   0  0  0  0  0  0
    8.9202   -5.9852   -4.4503 C   0  0  0  0  0  0
    8.2550   -4.8577   -3.9294 C   0  0  0  0  0  0
    6.8300   -3.6077   -0.7058 C   0  0  0  0  0  0
    6.1956   -2.4906   -0.1313 C   0  0  0  0  0  0
    6.3353    1.0178    0.2468 C   0  0  0  0  0  0
    7.8718    3.2234    1.1339 O   0  0  0  0  0  0
    3.9031    3.0870    1.4560 H   0  0  0  0  0  0
    1.7298    2.1155    1.2102 H   0  0  0  0  0  0
   -0.4078   -1.7926    1.0989 H   0  0  0  0  0  0
   -2.8409   -1.6507    1.4307 H   0  0  0  0  0  0
   -2.7463    2.5204    0.3307 H   0  0  0  0  0  0
   -0.3136    2.3772   -0.0065 H   0  0  0  0  0  0
    1.2615   -1.7514   -0.6290 H   0  0  0  0  0  0
    3.6724   -1.9143   -0.9400 H   0  0  0  0  0  0
    6.9634   -0.1672   -2.4989 H   0  0  0  0  0  0
    8.0582   -2.1145   -3.5200 H   0  0  0  0  0  0
    8.8453   -5.5581   -0.6486 H   0  0  0  0  0  0
    9.9715   -7.4887   -1.7439 H   0  0  0  0  0  0
    8.9663   -6.1473   -5.5171 H   0  0  0  0  0  0
    7.7856   -4.1567   -4.6037 H   0  0  0  0  0  0
    6.7662   -4.5581   -0.1970 H   0  0  0  0  0  0
    5.6915   -2.5953    0.8185 H   0  0  0  0  0  0
    7.4070    0.9556    0.1226 H   0  0  0  0  0  0
  1  2  1  0  0  0
  2  3  1  0  0  0
  2 35  2  0  0  0
  3 34  1  0  0  0
  3  4  2  0  0  0
  4  5  1  0  0  0
  4 36  1  0  0  0
  5 20  1  0  0  0
  5  6  2  0  0  0
  6  7  1  0  0  0
  6 37  1  0  0  0
  7  8  1  0  0  0
  7 18  2  0  0  0
  8 17  1  0  0  0
  8  9  2  0  0  0
  9 10  1  0  0  0
  9 38  1  0  0  0
 10 11  2  0  0  0
 10 39  1  0  0  0
 11 12  1  0  0  0
 11 16  1  0  0  0
 12 13  1  0  0  0
 12 14  1  0  0  0
 12 15  1  0  0  0
 16 17  2  0  0  0
 16 40  1  0  0  0
 17 41  1  0  0  0
 18 19  1  0  0  0
 18 42  1  0  0  0
 19 20  2  0  0  0
 19 43  1  0  0  0
 20 21  1  0  0  0
 21 22  1  0  0  0
 21 34  2  0  0  0
 22 33  1  0  0  0
 22 23  2  0  0  0
 23 24  1  0  0  0
 23 44  1  0  0  0
 24 25  2  0  0  0
 24 45  1  0  0  0
 25 26  1  0  0  0
 25 32  1  0  0  0
 26 31  1  0  0  0
 26 27  2  0  0  0
 27 28  1  0  0  0
 27 46  1  0  0  0
 28 29  2  0  0  0
 28 47  1  0  0  0
 29 30  1  0  0  0
 30 31  2  0  0  0
 30 48  1  0  0  0
 31 49  1  0  0  0
 32 33  2  0  0  0
 32 50  1  0  0  0
 33 51  1  0  0  0
 34 52  1  0  0  0
M  CHG  1   1  -1
M  END
> <i_epik_Tot_Q>
-1

> <i_epik_Tot_abs_Q>
1

> <i_lp_mmshare_version>
62121

> <i_m_Source_File_Index>
13

> <i_phase_Input_Structure_Number>
13

> <i_phase_Reference_Structure>
1

> <i_phase_Structure_Number>
13

> <i_f3d_flags>
0

> <b_lp_Chiralities_Consistent>
1

> <b_m_subgroup_collapsed>
0

> <r_canvas_IC50_(nM)_at_hP2Y14R>
40.8

> <r_canvas_pIC50>
7.389

> <r_epik_Charging_Adjusted_Penalty>
0.000590808005850875

> <r_epik_Ionization_Penalty>
  0.0060

> <r_epik_Ionization_Penalty_Charging>
  0.0006

> <r_epik_Ionization_Penalty_Neutral>
  0.0054

> <r_epik_State_Penalty>
  0.0000

> <r_lp_Energy>
67.040596

> <r_lp_tautomer_probability>
1

> <r_m_Percent_Extrap>
0.00381448292564786

> <r_m_predicted_activity1>
6.88230505936157

> <r_m_predicted_activity10>
7.00038217701392

> <r_m_predicted_activity11>
6.921140210858

> <r_m_predicted_activity12>
6.82410288692322

> <r_m_predicted_activity13>
6.721864895581

> <r_m_predicted_activity14>
6.7351008799631

> <r_m_predicted_activity2>
6.71454789439041

> <r_m_predicted_activity3>
7.15532840884745

> <r_m_predicted_activity4>
7.19790485158546

> <r_m_predicted_activity5>
7.11994048566038

> <r_m_predicted_activity6>
7.16271959977675

> <r_m_predicted_activity7>
7.0583218858026

> <r_m_predicted_activity8>
7.09652199172005

> <r_m_predicted_activity9>
6.9866612144972

> <r_phase_Similarity_to_Reference>
0.953166417555531

> <s_epik_cmdline>
J2VwaWtfcHl0aG9uJywgJy1waCcsICc3LjAnLCAnLXRuJywgJzgnLCAnLW1hJywgJzUwMCcsICctaW1hZScsICc8aW5maWxlLm1hZT4nLCAnLW9tYWUnLCAnPG91dGZpbGUubWFlPic=

> <s_epik_input>
W2NIXTFbY0hdbltjSF1bY0hdYzEtYyhbY0hdW2NIXTIpW2NIXVtjSF1jMi1jKFtjSF1jKFtjSF0zKUMoPU8pW09IXSljKGMzNClbY0hdW2NIXWMoW2NIXTQpLWM1W2NIXVtjSF1jKEMoRikoRilGKVtjSF1bY0hdNQ==

> <s_lp_Force_Field>
S-OPLS

> <s_lp_Variant>
15-1

> <s_m_Source_File>
compounds-paper5-aligned-activity-fixed-definitive.sdf

> <s_m_Source_Path>
/data/matteo/P2Y14-antagonists-piperidineDerivatives-Wen2023/20250303-Field-Based-QSAR/paper5-definitive

> <s_m_entry_id>
13

> <s_m_entry_name>
compounds-paper5-aligned-activity-fixed-definitive.13

> <s_m_job_name>
align_ligands_1

> <s_m_subgroup_title>
compounds-paper5-aligned-activity-fixed-definitive

> <s_m_subgroupid>
compounds-paper5-aligned-activity-fixed-definitive

> <s_phase_Alignment_Method>
snapped core

> <s_phase_Alignment_Reason>


> <s_phase_Core_SMARTS>
a1aaaaa1-a(a2)aaa(a23)a(aaa3)-a4aaaaa4

$$$$
16
                    3D
 Schrodinger Suite 2023-2.
 49 53  0  0  1  0            999 V2000
    6.0939    4.3069    1.8173 O   0  5  0  0  0  0
    6.6335    3.3065    1.2938 C   0  0  0  0  0  0
    5.7637    2.1649    0.8405 C   0  0  0  0  0  0
    4.3632    2.2211    1.0016 C   0  0  0  0  0  0
    3.5501    1.1548    0.5712 C   0  0  0  0  0  0
    2.1416    1.2031    0.7465 N   0  0  0  0  0  0
    1.4878    2.3796    0.9073 N   0  0  0  0  0  0
    0.2290    2.1112    1.0507 N   0  0  0  0  0  0
    0.0268    0.7303    0.9909 C   0  0  0  0  0  0
   -1.3027    0.1215    1.1311 C   0  0  0  0  0  0
   -2.4483    0.9125    1.3770 C   0  0  0  0  0  0
   -3.7160    0.3144    1.5147 C   0  0  0  0  0  0
   -3.8625   -1.0843    1.4049 C   0  0  0  0  0  0
   -5.2339   -1.7237    1.5660 C   0  0  0  0  0  0
   -5.2831   -2.9203    0.9792 F   0  0  0  0  0  0
   -5.4981   -1.8719    2.8635 F   0  0  0  0  0  0
   -6.1758   -0.9530    1.0208 F   0  0  0  0  0  0
   -2.7207   -1.8779    1.1651 C   0  0  0  0  0  0
   -1.4535   -1.2791    1.0276 C   0  0  0  0  0  0
    1.2493    0.1477    0.7955 C   0  0  0  0  0  0
    4.1320    0.0089   -0.0274 C   0  0  0  0  0  0
    5.5422   -0.0679   -0.1843 C   0  0  0  0  0  0
    6.2189   -1.2368   -0.7759 C   0  0  0  0  0  0
    6.1956   -2.4906   -0.1313 C   0  0  0  0  0  0
    6.8300   -3.6077   -0.7058 C   0  0  0  0  0  0
    7.5223   -3.4998   -1.9335 C   0  0  0  0  0  0
    8.1759   -4.6190   -2.5159 N   0  0  0  0  0  0
    9.0981   -4.6355   -3.5484 C   0  0  0  0  0  0
    9.3981   -5.9580   -3.7032 C   0  0  0  0  0  0
    8.6648   -6.6910   -2.7759 N   0  0  0  0  0  0
    7.9395   -5.8811   -2.0716 N   0  0  0  0  0  0
    7.5479   -2.2386   -2.5763 C   0  0  0  0  0  0
    6.9102   -1.1235   -1.9992 C   0  0  0  0  0  0
    6.3353    1.0178    0.2468 C   0  0  0  0  0  0
    7.8718    3.2234    1.1339 O   0  0  0  0  0  0
    3.9149    3.0883    1.4646 H   0  0  0  0  0  0
   -2.3672    1.9858    1.4666 H   0  0  0  0  0  0
   -4.5781    0.9353    1.7086 H   0  0  0  0  0  0
   -2.8084   -2.9517    1.0881 H   0  0  0  0  0  0
   -0.5966   -1.9100    0.8437 H   0  0  0  0  0  0
    1.5435   -0.8865    0.7013 H   0  0  0  0  0  0
    3.5212   -0.8150   -0.3650 H   0  0  0  0  0  0
    5.6781   -2.6000    0.8106 H   0  0  0  0  0  0
    6.7854   -4.5489   -0.1781 H   0  0  0  0  0  0
    9.4529   -3.7540   -4.0606 H   0  0  0  0  0  0
   10.0749   -6.4373   -4.3953 H   0  0  0  0  0  0
    8.0566   -2.1090   -3.5193 H   0  0  0  0  0  0
    6.9445   -0.1717   -2.5092 H   0  0  0  0  0  0
    7.4071    0.9551    0.1219 H   0  0  0  0  0  0
  1  2  1  0  0  0
  2  3  1  0  0  0
  2 35  2  0  0  0
  3 34  1  0  0  0
  3  4  2  0  0  0
  4  5  1  0  0  0
  4 36  1  0  0  0
  5  6  1  0  0  0
  5 21  2  0  0  0
  6 20  1  0  0  0
  6  7  1  0  0  0
  7  8  2  0  0  0
  8  9  1  0  0  0
  9 10  1  0  0  0
  9 20  2  0  0  0
 10 19  1  0  0  0
 10 11  2  0  0  0
 11 12  1  0  0  0
 11 37  1  0  0  0
 12 13  2  0  0  0
 12 38  1  0  0  0
 13 14  1  0  0  0
 13 18  1  0  0  0
 14 15  1  0  0  0
 14 16  1  0  0  0
 14 17  1  0  0  0
 18 19  2  0  0  0
 18 39  1  0  0  0
 19 40  1  0  0  0
 20 41  1  0  0  0
 21 22  1  0  0  0
 21 42  1  0  0  0
 22 23  1  0  0  0
 22 34  2  0  0  0
 23 33  1  0  0  0
 23 24  2  0  0  0
 24 25  1  0  0  0
 24 43  1  0  0  0
 25 26  2  0  0  0
 25 44  1  0  0  0
 26 27  1  0  0  0
 26 32  1  0  0  0
 27 31  1  0  0  0
 27 28  1  0  0  0
 28 29  2  0  0  0
 28 45  1  0  0  0
 29 30  1  0  0  0
 29 46  1  0  0  0
 30 31  2  0  0  0
 32 33  2  0  0  0
 32 47  1  0  0  0
 33 48  1  0  0  0
 34 49  1  0  0  0
M  CHG  1   1  -1
M  END
> <i_epik_Tot_Q>
-1

> <i_epik_Tot_abs_Q>
1

> <i_lp_mmshare_version>
62121

> <i_m_Source_File_Index>
14

> <i_phase_Input_Structure_Number>
14

> <i_phase_Reference_Structure>
1

> <i_phase_Structure_Number>
14

> <i_f3d_flags>
0

> <b_lp_Chiralities_Consistent>
1

> <b_m_subgroup_collapsed>
0

> <r_canvas_IC50_(nM)_at_hP2Y14R>
2030

> <r_canvas_pIC50>
5.692

> <r_epik_Charging_Adjusted_Penalty>
0.000166961650298847

> <r_epik_Ionization_Penalty>
  0.0002

> <r_epik_Ionization_Penalty_Charging>
  0.0002

> <r_epik_Ionization_Penalty_Neutral>
  0.0000

> <r_epik_State_Penalty>
  0.0000

> <r_lp_Energy>
52.060127

> <r_lp_tautomer_probability>
1

> <r_m_Percent_Extrap>
0.0325744732380722

> <r_m_predicted_activity1>
5.94264925549079

> <r_m_predicted_activity10>
6.35189888712122

> <r_m_predicted_activity11>
6.22096325622377

> <r_m_predicted_activity12>
6.27700705447917

> <r_m_predicted_activity13>
6.19116514684508

> <r_m_predicted_activity14>
6.20360225948731

> <r_m_predicted_activity2>
6.07491290947271

> <r_m_predicted_activity3>
6.506495172801

> <r_m_predicted_activity4>
6.58399891762194

> <r_m_predicted_activity5>
6.43591058042644

> <r_m_predicted_activity6>
6.42022492842752

> <r_m_predicted_activity7>
6.34266363210697

> <r_m_predicted_activity8>
6.37206454169807

> <r_m_predicted_activity9>
6.3051812736911

> <r_phase_Similarity_to_Reference>
0.696246095836621

> <s_epik_cmdline>
J2VwaWtfcHl0aG9uJywgJy1waCcsICc3LjAnLCAnLXRuJywgJzgnLCAnLW1hJywgJzUwMCcsICctaW1hZScsICc8aW5maWxlLm1hZT4nLCAnLW9tYWUnLCAnPG91dGZpbGUubWFlPic=

> <s_epik_input>
RkMoRikoRiljKFtjSF1bY0hdMSlbY0hdW2NIXWMxLWMoW2NIXTIpbm5uMi1jKFtjSF1jM0MoPU8pW09IXSlbY0hdYyhbY0hdMyktYzRbY0hdW2NIXWMoW2NIXVtjSF00KS1uNVtjSF1bY0hdbm41

> <s_lp_Force_Field>
S-OPLS

> <s_lp_Variant>
16-1

> <s_m_Source_File>
compounds-paper5-aligned-activity-fixed-definitive.sdf

> <s_m_Source_Path>
/data/matteo/P2Y14-antagonists-piperidineDerivatives-Wen2023/20250303-Field-Based-QSAR/paper5-definitive

> <s_m_entry_id>
14

> <s_m_entry_name>
compounds-paper5-aligned-activity-fixed-definitive.14

> <s_m_job_name>
align_ligands_1

> <s_m_subgroup_title>
compounds-paper5-aligned-activity-fixed-definitive

> <s_m_subgroupid>
compounds-paper5-aligned-activity-fixed-definitive

> <s_phase_Alignment_Method>
snapped core

> <s_phase_Alignment_Reason>


> <s_phase_Core_SMARTS>
a1aaaaa1-a2aaaaa2

$$$$
17
                    3D
 Schrodinger Suite 2023-2.
 61 65  0  0  1  0            999 V2000
    7.9510    3.0101    1.0295 O   0  0  0  0  0  0
    6.6288    3.3030    1.2948 C   0  0  0  0  0  0
    5.7637    2.1649    0.8405 C   0  0  0  0  0  0
    4.3632    2.2211    1.0016 C   0  0  0  0  0  0
    3.5501    1.1548    0.5712 C   0  0  0  0  0  0
    2.1524    1.2383    0.7416 C   0  0  0  0  0  0
    1.3001    0.1930    0.3226 C   0  0  0  0  0  0
   -0.1610    0.2796    0.5158 C   0  0  0  0  0  0
   -0.9062   -0.8510    0.9207 C   0  0  0  0  0  0
   -2.2992   -0.7723    1.1122 C   0  0  0  0  0  0
   -2.9805    0.4435    0.8954 C   0  0  0  0  0  0
   -4.4843    0.5364    1.1094 C   0  0  0  0  0  0
   -5.0261    1.4324    0.2838 F   0  0  0  0  0  0
   -4.7261    0.9091    2.3654 F   0  0  0  0  0  0
   -5.0718   -0.6406    0.8904 F   0  0  0  0  0  0
   -2.2454    1.5776    0.4941 C   0  0  0  0  0  0
   -0.8521    1.4946    0.3065 C   0  0  0  0  0  0
    1.8847   -0.9390   -0.2850 C   0  0  0  0  0  0
    3.2777   -1.0307   -0.4622 C   0  0  0  0  0  0
    4.1320    0.0089   -0.0274 C   0  0  0  0  0  0
    5.5422   -0.0679   -0.1843 C   0  0  0  0  0  0
    6.2189   -1.2368   -0.7759 C   0  0  0  0  0  0
    6.1956   -2.4906   -0.1313 C   0  0  0  0  0  0
    6.8300   -3.6077   -0.7058 C   0  0  0  0  0  0
    7.5223   -3.4998   -1.9335 C   0  0  0  0  0  0
    7.5479   -2.2386   -2.5763 C   0  0  0  0  0  0
    6.9102   -1.1235   -1.9992 C   0  0  0  0  0  0
    8.1668   -4.7603   -2.5405 C   0  0  0  0  0  0
    9.1677   -4.5137   -3.6951 C   0  0  0  0  0  0
    9.5605   -5.8453   -4.3903 C   0  0  0  0  0  0
   10.1128   -6.8814   -3.4645 N   0  3  0  0  0  0
    9.5748   -6.8461   -2.0682 C   0  0  0  0  0  0
    9.1681   -5.4314   -1.5741 C   0  0  0  0  0  0
    6.3353    1.0178    0.2468 C   0  0  0  0  0  0
    8.6033    3.7178    1.3010 H   0  0  0  0  0  0
    6.4980    3.4535    2.3664 H   0  0  0  0  0  0
    6.3439    4.2107    0.7629 H   0  0  0  0  0  0
    3.9085    3.0895    1.4592 H   0  0  0  0  0  0
    1.7276    2.1203    1.2020 H   0  0  0  0  0  0
   -0.4070   -1.7962    1.0886 H   0  0  0  0  0  0
   -2.8523   -1.6473    1.4272 H   0  0  0  0  0  0
   -2.7515    2.5195    0.3282 H   0  0  0  0  0  0
   -0.3104    2.3789   -0.0025 H   0  0  0  0  0  0
    1.2564   -1.7528   -0.6221 H   0  0  0  0  0  0
    3.7036   -1.9050   -0.9361 H   0  0  0  0  0  0
    5.6857   -2.6022    0.8165 H   0  0  0  0  0  0
    6.7922   -4.5672   -0.2071 H   0  0  0  0  0  0
    8.0615   -2.1235   -3.5217 H   0  0  0  0  0  0
    6.9562   -0.1698   -2.5083 H   0  0  0  0  0  0
    7.3397   -5.3444   -2.9510 H   0  0  0  0  0  0
    8.7301   -3.8297   -4.4251 H   0  0  0  0  0  0
   10.0584   -4.0066   -3.3188 H   0  0  0  0  0  0
    8.7076   -6.3367   -4.8644 H   0  0  0  0  0  0
   10.3412   -5.7080   -5.1421 H   0  0  0  0  0  0
    9.9517   -7.8036   -3.8477 H   0  0  0  0  0  0
   11.1187   -6.7939   -3.4198 H   0  0  0  0  0  0
    8.7093   -7.5124   -2.0438 H   0  0  0  0  0  0
   10.3467   -7.2593   -1.4148 H   0  0  0  0  0  0
   10.0552   -4.8057   -1.4576 H   0  0  0  0  0  0
    8.7294   -5.5027   -0.5768 H   0  0  0  0  0  0
    7.4075    0.9588    0.1140 H   0  0  0  0  0  0
  1  2  1  0  0  0
  1 35  1  0  0  0
  2  3  1  0  0  0
  2 36  1  0  0  0
  2 37  1  0  0  0
  3  4  2  0  0  0
  3 34  1  0  0  0
  4  5  1  0  0  0
  4 38  1  0  0  0
  5  6  2  0  0  0
  5 20  1  0  0  0
  6  7  1  0  0  0
  6 39  1  0  0  0
  7  8  1  0  0  0
  7 18  2  0  0  0
  8  9  2  0  0  0
  8 17  1  0  0  0
  9 10  1  0  0  0
  9 40  1  0  0  0
 10 11  2  0  0  0
 10 41  1  0  0  0
 11 12  1  0  0  0
 11 16  1  0  0  0
 12 13  1  0  0  0
 12 14  1  0  0  0
 12 15  1  0  0  0
 16 17  2  0  0  0
 16 42  1  0  0  0
 17 43  1  0  0  0
 18 19  1  0  0  0
 18 44  1  0  0  0
 19 20  2  0  0  0
 19 45  1  0  0  0
 20 21  1  0  0  0
 21 22  1  0  0  0
 21 34  2  0  0  0
 22 23  2  0  0  0
 22 27  1  0  0  0
 23 24  1  0  0  0
 23 46  1  0  0  0
 24 25  2  0  0  0
 24 47  1  0  0  0
 25 26  1  0  0  0
 25 28  1  0  0  0
 26 27  2  0  0  0
 26 48  1  0  0  0
 27 49  1  0  0  0
 28 29  1  0  0  0
 28 33  1  0  0  0
 28 50  1  0  0  0
 29 30  1  0  0  0
 29 51  1  0  0  0
 29 52  1  0  0  0
 30 31  1  0  0  0
 30 53  1  0  0  0
 30 54  1  0  0  0
 31 32  1  0  0  0
 31 55  1  0  0  0
 31 56  1  0  0  0
 32 33  1  0  0  0
 32 57  1  0  0  0
 32 58  1  0  0  0
 33 59  1  0  0  0
 33 60  1  0  0  0
 34 61  1  0  0  0
M  CHG  1  31   1
M  END
> <i_epik_Tot_Q>
0

> <i_epik_Tot_abs_Q>
2

> <i_lp_mmshare_version>
62121

> <i_m_Source_File_Index>
15

> <i_phase_Input_Structure_Number>
15

> <i_phase_Reference_Structure>
1

> <i_phase_Structure_Number>
15

> <i_f3d_flags>
0

> <b_lp_Chiralities_Consistent>
1

> <b_m_subgroup_collapsed>
0

> <r_canvas_IC50_(nM)_at_hP2Y14R>
20000

> <r_canvas_pIC50>
4.699

> <r_epik_Charging_Adjusted_Penalty>
0.0012733390979885

> <r_epik_Ionization_Penalty>
  0.0013

> <r_epik_Ionization_Penalty_Charging>
  0.0013

> <r_epik_Ionization_Penalty_Neutral>
  0.0000

> <r_epik_State_Penalty>
  0.0000

> <r_lp_Energy>
66.360789

> <r_lp_tautomer_probability>
1

> <r_m_Percent_Extrap>
0.0221603293775733

> <r_m_predicted_activity1>
7.17021174172749

> <r_m_predicted_activity10>
5.25738826722897

> <r_m_predicted_activity11>
5.07168625722071

> <r_m_predicted_activity12>
4.95122112392413

> <r_m_predicted_activity13>
4.77935372641035

> <r_m_predicted_activity14>
4.62472680744344

> <r_m_predicted_activity2>
7.28821913927505

> <r_m_predicted_activity3>
7.17484971062464

> <r_m_predicted_activity4>
6.95338678149104

> <r_m_predicted_activity5>
6.59427964897515

> <r_m_predicted_activity6>
6.51309559335333

> <r_m_predicted_activity7>
6.09129433013415

> <r_m_predicted_activity8>
5.80581638907519

> <r_m_predicted_activity9>
5.52562720517168

> <r_phase_Similarity_to_Reference>
0.98706125057445

> <s_epik_cmdline>
J2VwaWtfcHl0aG9uJywgJy1waCcsICc3LjAnLCAnLXRuJywgJzgnLCAnLW1hJywgJzUwMCcsICctaW1hZScsICc8aW5maWxlLm1hZT4nLCAnLW9tYWUnLCAnPG91dGZpbGUubWFlPic=

> <s_epik_input>
W0NIMl0xW0NIMl1bTkhdW0NIMl1bQ0gyXVtDSF0xYyhbY0hdW2NIXTIpW2NIXVtjSF1jMi1jKFtjSF1jKFtjSF0zKUMoPU8pW09IXSljKGMzNClbY0hdW2NIXWMoW2NIXTQpLWM1W2NIXVtjSF1jKEMoRikoRilGKVtjSF1bY0hdNQ==

> <s_lp_Force_Field>
S-OPLS

> <s_lp_Variant>
1-1

> <s_m_Source_File>
compounds-paper5-aligned-activity-fixed-definitive.sdf

> <s_m_Source_Path>
/data/matteo/P2Y14-antagonists-piperidineDerivatives-Wen2023/20250303-Field-Based-QSAR/paper5-definitive

> <s_m_entry_id>
15

> <s_m_entry_name>
compounds-paper5-aligned-activity-fixed-definitive.15

> <s_m_job_name>
align_ligands_1

> <s_m_subgroup_title>
compounds-paper5-aligned-activity-fixed-definitive

> <s_m_subgroupid>
compounds-paper5-aligned-activity-fixed-definitive

> <s_phase_Alignment_Method>
snapped core

> <s_phase_Alignment_Reason>


> <s_phase_Core_SMARTS>
a1aaaaa1-a(a2)aaa(a23)a(aaa3)-a4aaa(aa4)A5AA[A]AA5

$$$$
18
                    3D
 Schrodinger Suite 2023-2.
 64 68  0  0  1  0            999 V2000
    7.7879    3.8144    4.1576 O   0  0  0  0  0  0
    7.9461    2.5065    3.4064 P   0  0  0  0  0  0
    7.8974    2.8957    1.8105 O   0  0  0  0  0  0
    6.6420    3.3172    1.2983 C   0  0  0  0  0  0
    5.7637    2.1649    0.8405 C   0  0  0  0  0  0
    4.3632    2.2211    1.0016 C   0  0  0  0  0  0
    3.5501    1.1548    0.5712 C   0  0  0  0  0  0
    2.1364    1.2250    0.7122 N   0  0  0  0  0  0
    1.5119    2.4021    0.9648 N   0  0  0  0  0  0
    0.2399    2.1700    1.0180 N   0  0  0  0  0  0
   -0.0048    0.8125    0.8021 C   0  0  0  0  0  0
   -1.3627    0.2524    0.7962 C   0  0  0  0  0  0
   -1.5530   -1.1432    0.6932 C   0  0  0  0  0  0
   -2.8502   -1.6918    0.6760 C   0  0  0  0  0  0
   -3.9815   -0.8518    0.7549 C   0  0  0  0  0  0
   -5.3872   -1.4339    0.7401 C   0  0  0  0  0  0
   -5.8384   -1.5248    1.9905 F   0  0  0  0  0  0
   -6.2085   -0.6480    0.0431 F   0  0  0  0  0  0
   -5.4045   -2.6481    0.1890 F   0  0  0  0  0  0
   -3.7957    0.5419    0.8645 C   0  0  0  0  0  0
   -2.4984    1.0895    0.8835 C   0  0  0  0  0  0
    1.2069    0.2041    0.6148 C   0  0  0  0  0  0
    4.1320    0.0089   -0.0274 C   0  0  0  0  0  0
    5.5422   -0.0679   -0.1843 C   0  0  0  0  0  0
    6.2189   -1.2368   -0.7759 C   0  0  0  0  0  0
    6.1956   -2.4906   -0.1313 C   0  0  0  0  0  0
    6.8300   -3.6077   -0.7058 C   0  0  0  0  0  0
    7.5223   -3.4998   -1.9335 C   0  0  0  0  0  0
    8.1668   -4.7603   -2.5405 C   0  0  0  0  0  0
    9.1681   -5.4314   -1.5741 C   0  0  0  0  0  0
    9.5748   -6.8461   -2.0682 C   0  0  0  0  0  0
   10.1128   -6.8814   -3.4645 N   0  3  0  0  0  0
    9.5605   -5.8453   -4.3903 C   0  0  0  0  0  0
    9.1677   -4.5137   -3.6951 C   0  0  0  0  0  0
    7.5479   -2.2386   -2.5763 C   0  0  0  0  0  0
    6.9102   -1.1235   -1.9992 C   0  0  0  0  0  0
    6.3353    1.0178    0.2468 C   0  0  0  0  0  0
    9.3079    1.8761    3.6188 O   0  5  0  0  0  0
    6.8102    1.5357    3.6673 O   0  5  0  0  0  0
    6.1074    3.9346    2.0218 H   0  0  0  0  0  0
    6.8292    3.9567    0.4350 H   0  0  0  0  0  0
    3.9311    3.0975    1.4620 H   0  0  0  0  0  0
   -0.7039   -1.8071    0.6274 H   0  0  0  0  0  0
   -2.9691   -2.7624    0.6020 H   0  0  0  0  0  0
   -4.6504    1.1987    0.9348 H   0  0  0  0  0  0
   -2.3876    2.1610    0.9631 H   0  0  0  0  0  0
    1.4681   -0.8254    0.4243 H   0  0  0  0  0  0
    3.5240   -0.8144   -0.3696 H   0  0  0  0  0  0
    5.6737   -2.6000    0.8084 H   0  0  0  0  0  0
    6.7660   -4.5571   -0.1960 H   0  0  0  0  0  0
    7.3710   -5.4449   -2.8380 H   0  0  0  0  0  0
   10.0463   -4.8121   -1.3811 H   0  0  0  0  0  0
    8.7075   -5.5693   -0.5967 H   0  0  0  0  0  0
   10.3032   -7.2966   -1.3937 H   0  0  0  0  0  0
    8.6943   -7.4892   -2.0447 H   0  0  0  0  0  0
   11.1029   -6.6956   -3.3907 H   0  0  0  0  0  0
   10.2767   -5.6658   -5.1924 H   0  0  0  0  0  0
    8.6723   -6.2702   -4.8595 H   0  0  0  0  0  0
    8.6883   -3.9127   -4.4670 H   0  0  0  0  0  0
   10.0481   -3.9461   -3.3876 H   0  0  0  0  0  0
    8.0538   -2.0963   -3.5178 H   0  0  0  0  0  0
    6.9446   -0.1710   -2.5081 H   0  0  0  0  0  0
    7.4084    0.9672    0.1299 H   0  0  0  0  0  0
    9.9938   -7.8029   -3.8611 H   0  0  0  0  0  0
  1  2  2  0  0  0
  2  3  1  0  0  0
  2 38  1  0  0  0
  2 39  1  0  0  0
  3  4  1  0  0  0
  4  5  1  0  0  0
  4 40  1  0  0  0
  4 41  1  0  0  0
  5 37  1  0  0  0
  5  6  2  0  0  0
  6  7  1  0  0  0
  6 42  1  0  0  0
  7  8  1  0  0  0
  7 23  2  0  0  0
  8 22  1  0  0  0
  8  9  1  0  0  0
  9 10  2  0  0  0
 10 11  1  0  0  0
 11 12  1  0  0  0
 11 22  2  0  0  0
 12 21  1  0  0  0
 12 13  2  0  0  0
 13 14  1  0  0  0
 13 43  1  0  0  0
 14 15  2  0  0  0
 14 44  1  0  0  0
 15 16  1  0  0  0
 15 20  1  0  0  0
 16 17  1  0  0  0
 16 18  1  0  0  0
 16 19  1  0  0  0
 20 21  2  0  0  0
 20 45  1  0  0  0
 21 46  1  0  0  0
 22 47  1  0  0  0
 23 24  1  0  0  0
 23 48  1  0  0  0
 24 25  1  0  0  0
 24 37  2  0  0  0
 25 36  1  0  0  0
 25 26  2  0  0  0
 26 27  1  0  0  0
 26 49  1  0  0  0
 27 28  2  0  0  0
 27 50  1  0  0  0
 28 29  1  0  0  0
 28 35  1  0  0  0
 29 34  1  0  0  0
 29 30  1  0  0  0
 29 51  1  0  0  0
 30 31  1  0  0  0
 30 52  1  0  0  0
 30 53  1  0  0  0
 31 32  1  0  0  0
 31 54  1  0  0  0
 31 55  1  0  0  0
 32 33  1  0  0  0
 32 56  1  0  0  0
 32 64  1  0  0  0
 33 34  1  0  0  0
 33 57  1  0  0  0
 33 58  1  0  0  0
 34 59  1  0  0  0
 34 60  1  0  0  0
 35 36  2  0  0  0
 35 61  1  0  0  0
 36 62  1  0  0  0
 37 63  1  0  0  0
M  CHG  3  32   1  38  -1  39  -1
M  END
> <i_epik_Tot_Q>
-1

> <i_epik_Tot_abs_Q>
3

> <i_lp_mmshare_version>
62121

> <i_m_Source_File_Index>
16

> <i_phase_Input_Structure_Number>
16

> <i_phase_Reference_Structure>
1

> <i_phase_Structure_Number>
16

> <i_f3d_flags>
0

> <b_lp_Chiralities_Consistent>
1

> <b_m_subgroup_collapsed>
0

> <r_canvas_IC50_(nM)_at_hP2Y14R>
60500

> <r_canvas_pIC50>
4.21824462534753

> <r_epik_Charging_Adjusted_Penalty>
0.221643002503518

> <r_epik_Ionization_Penalty>
  0.1111

> <r_epik_Ionization_Penalty_Charging>
  0.1111

> <r_epik_Ionization_Penalty_Neutral>
  0.0000

> <r_epik_State_Penalty>
  0.1105

> <r_lp_Energy>
44.276522

> <r_lp_tautomer_probability>
1

> <r_m_Percent_Extrap>
0.0460159844998789

> <r_m_predicted_activity1>
6.3718650155073

> <r_m_predicted_activity10>
4.41414669235514

> <r_m_predicted_activity11>
4.30740170795341

> <r_m_predicted_activity12>
4.26764480517971

> <r_m_predicted_activity13>
4.11021330773196

> <r_m_predicted_activity14>
4.00209587456612

> <r_m_predicted_activity2>
6.50342642736454

> <r_m_predicted_activity3>
6.11044719471579

> <r_m_predicted_activity4>
5.7849492480645

> <r_m_predicted_activity5>
5.29111010872945

> <r_m_predicted_activity6>
5.14415440799164

> <r_m_predicted_activity7>
4.79107719846615

> <r_m_predicted_activity8>
4.67490234729871

> <r_m_predicted_activity9>
4.55954166362631

> <r_phase_Similarity_to_Reference>
0.823003796861465

> <s_epik_cmdline>
J2VwaWtfcHl0aG9uJywgJy1waCcsICc3LjAnLCAnLXRuJywgJzgnLCAnLW1hJywgJzUwMCcsICctaW1hZScsICc8aW5maWxlLm1hZT4nLCAnLW9tYWUnLCAnPG91dGZpbGUubWFlPic=

> <s_epik_input>
RkMoRikoRiljKFtjSF1bY0hdMSlbY0hdW2NIXWMxLWMoW2NIXTIpbm5uMi1jKFtjSF1jM1tDSDJdT1AoPU8pKFtPSF0pW09IXSlbY0hdYyhbY0hdMyktYzRbY0hdW2NIXWMoW2NIXVtjSF00KVtDSF01W0NIMl1bQ0gyXVtOSF1bQ0gyXVtDSDJdNQ==

> <s_lp_Force_Field>
S-OPLS

> <s_lp_Variant>
17-1

> <s_m_Source_File>
compounds-paper5-aligned-activity-fixed-definitive.sdf

> <s_m_Source_Path>
/data/matteo/P2Y14-antagonists-piperidineDerivatives-Wen2023/20250303-Field-Based-QSAR/paper5-definitive

> <s_m_entry_id>
16

> <s_m_entry_name>
compounds-paper5-aligned-activity-fixed-definitive.16

> <s_m_job_name>
align_ligands_1

> <s_m_subgroup_title>
compounds-paper5-aligned-activity-fixed-definitive

> <s_m_subgroupid>
compounds-paper5-aligned-activity-fixed-definitive

> <s_phase_Alignment_Method>
snapped core

> <s_phase_Alignment_Reason>


> <s_phase_Core_SMARTS>
a1aaaaa1-a2aaa(aa2)A3AA[A]AA3

$$$$
19
                    3D
 Schrodinger Suite 2023-2.
 34 36  0  0  1  0            999 V2000
    6.0939    4.3069    1.8173 O   0  5  0  0  0  0
    6.6335    3.3065    1.2938 C   0  0  0  0  0  0
    5.7637    2.1649    0.8405 C   0  0  0  0  0  0
    4.3632    2.2211    1.0016 C   0  0  0  0  0  0
    3.5501    1.1548    0.5712 C   0  0  0  0  0  0
    2.1524    1.2383    0.7416 C   0  0  0  0  0  0
    1.3001    0.1930    0.3226 C   0  0  0  0  0  0
   -0.1610    0.2796    0.5158 C   0  0  0  0  0  0
   -0.9062   -0.8510    0.9207 C   0  0  0  0  0  0
   -2.2992   -0.7723    1.1122 C   0  0  0  0  0  0
   -2.9805    0.4435    0.8954 C   0  0  0  0  0  0
   -4.4843    0.5364    1.1094 C   0  0  0  0  0  0
   -5.0261    1.4324    0.2838 F   0  0  0  0  0  0
   -4.7261    0.9091    2.3654 F   0  0  0  0  0  0
   -5.0718   -0.6406    0.8904 F   0  0  0  0  0  0
   -2.2454    1.5776    0.4941 C   0  0  0  0  0  0
   -0.8521    1.4946    0.3065 C   0  0  0  0  0  0
    1.8847   -0.9390   -0.2850 C   0  0  0  0  0  0
    3.2777   -1.0307   -0.4622 C   0  0  0  0  0  0
    4.1320    0.0089   -0.0274 C   0  0  0  0  0  0
    5.5422   -0.0679   -0.1843 C   0  0  0  0  0  0
    6.3353    1.0178    0.2468 C   0  0  0  0  0  0
    7.8718    3.2234    1.1339 O   0  0  0  0  0  0
    6.1301   -1.1742   -0.7631 O   0  0  0  0  0  0
    3.9085    3.0895    1.4592 H   0  0  0  0  0  0
    1.7276    2.1203    1.2020 H   0  0  0  0  0  0
   -0.4070   -1.7962    1.0886 H   0  0  0  0  0  0
   -2.8523   -1.6473    1.4272 H   0  0  0  0  0  0
   -2.7515    2.5195    0.3282 H   0  0  0  0  0  0
   -0.3104    2.3789   -0.0025 H   0  0  0  0  0  0
    1.2564   -1.7528   -0.6221 H   0  0  0  0  0  0
    3.7036   -1.9050   -0.9361 H   0  0  0  0  0  0
    7.4075    0.9588    0.1140 H   0  0  0  0  0  0
    7.1271   -1.1365   -0.8301 H   0  0  0  0  0  0
  1  2  1  0  0  0
  2  3  1  0  0  0
  2 23  2  0  0  0
  3  4  2  0  0  0
  3 22  1  0  0  0
  4  5  1  0  0  0
  4 25  1  0  0  0
  5  6  2  0  0  0
  5 20  1  0  0  0
  6  7  1  0  0  0
  6 26  1  0  0  0
  7  8  1  0  0  0
  7 18  2  0  0  0
  8  9  2  0  0  0
  8 17  1  0  0  0
  9 10  1  0  0  0
  9 27  1  0  0  0
 10 11  2  0  0  0
 10 28  1  0  0  0
 11 12  1  0  0  0
 11 16  1  0  0  0
 12 13  1  0  0  0
 12 14  1  0  0  0
 12 15  1  0  0  0
 16 17  2  0  0  0
 16 29  1  0  0  0
 17 30  1  0  0  0
 18 19  1  0  0  0
 18 31  1  0  0  0
 19 20  2  0  0  0
 19 32  1  0  0  0
 20 21  1  0  0  0
 21 22  2  0  0  0
 21 24  1  0  0  0
 22 33  1  0  0  0
 24 34  1  0  0  0
M  CHG  1   1  -1
M  END
> <i_epik_Tot_Q>
0

> <i_epik_Tot_abs_Q>
2

> <i_lp_mmshare_version>
62121

> <i_m_Source_File_Index>
17

> <i_phase_Input_Structure_Number>
17

> <i_phase_Reference_Structure>
1

> <i_phase_Structure_Number>
17

> <i_f3d_flags>
0

> <b_lp_Chiralities_Consistent>
1

> <b_m_subgroup_collapsed>
0

> <r_canvas_IC50_(nM)_at_hP2Y14R>
3200

> <r_canvas_pIC50>
5.495

> <r_epik_Charging_Adjusted_Penalty>
0.0012733390979885

> <r_epik_Ionization_Penalty>
  0.0013

> <r_epik_Ionization_Penalty_Charging>
  0.0013

> <r_epik_Ionization_Penalty_Neutral>
  0.0000

> <r_epik_State_Penalty>
  0.0000

> <r_lp_Energy>
66.360789

> <r_lp_tautomer_probability>
1

> <r_m_Percent_Extrap>
0.0173165415354807

> <r_m_predicted_activity1>
6.16738360187762

> <r_m_predicted_activity10>
5.4412511912902

> <r_m_predicted_activity11>
5.44569839340751

> <r_m_predicted_activity12>
5.26983390854226

> <r_m_predicted_activity13>
5.32711713303788

> <r_m_predicted_activity14>
5.53957626136063

> <r_m_predicted_activity2>
5.40113837250376

> <r_m_predicted_activity3>
5.92954782645909

> <r_m_predicted_activity4>
5.52410183496639

> <r_m_predicted_activity5>
5.38832982818163

> <r_m_predicted_activity6>
5.83384189384102

> <r_m_predicted_activity7>
5.83266850644309

> <r_m_predicted_activity8>
5.44950637005085

> <r_m_predicted_activity9>
5.39769016501038

> <r_phase_Similarity_to_Reference>
0.621213707588155

> <s_epik_cmdline>
J2VwaWtfcHl0aG9uJywgJy1waCcsICc3LjAnLCAnLXRuJywgJzgnLCAnLW1hJywgJzUwMCcsICctaW1hZScsICc8aW5maWxlLm1hZT4nLCAnLW9tYWUnLCAnPG91dGZpbGUubWFlPic=

> <s_epik_input>
W0NIMl0xW0NIMl1bTkhdW0NIMl1bQ0gyXVtDSF0xYyhbY0hdW2NIXTIpW2NIXVtjSF1jMi1jKFtjSF1jKFtjSF0zKUMoPU8pW09IXSljKGMzNClbY0hdW2NIXWMoW2NIXTQpLWM1W2NIXVtjSF1jKEMoRikoRilGKVtjSF1bY0hdNQ==

> <s_lp_Force_Field>
S-OPLS

> <s_lp_Variant>
1-1

> <s_m_Source_File>
compounds-paper5-aligned-activity-fixed-definitive.sdf

> <s_m_Source_Path>
/data/matteo/P2Y14-antagonists-piperidineDerivatives-Wen2023/20250303-Field-Based-QSAR/paper5-definitive

> <s_m_entry_id>
17

> <s_m_entry_name>
compounds-paper5-aligned-activity-fixed-definitive.17

> <s_m_job_name>
align_ligands_1

> <s_m_subgroup_title>
compounds-paper5-aligned-activity-fixed-definitive

> <s_m_subgroupid>
compounds-paper5-aligned-activity-fixed-definitive

> <s_phase_Alignment_Method>
snapped core

> <s_phase_Alignment_Reason>


> <s_phase_Core_SMARTS>
a1aaaa(a12)aa(aa2)-a3aaaaa3

$$$$
